

        *** GPGPU-Sim Simulator Version 3.2.2  [build 0] ***


GPGPU-Sim PTX: simulation mode 0 (can change with PTX_SIM_MODE_FUNC environment variable:
               1=functional simulation only, 0=detailed performance simulator)
GPGPU-Sim: Configuration options:

-network_mode                           1 # Interconnection network mode
-inter_config_file   config_fermi_islip.icnt # Interconnection network config file
-gpgpu_ptx_use_cuobjdump                    1 # Use cuobjdump to extract ptx and sass from binaries
-gpgpu_experimental_lib_support                    0 # Try to extract code from cuda libraries [Broken because of unknown cudaGetExportTable]
-gpgpu_ptx_convert_to_ptxplus                    0 # Convert SASS (native ISA) to ptxplus and run ptxplus
-gpgpu_ptx_force_max_capability                   20 # Force maximum compute capability
-gpgpu_ptx_inst_debug_to_file                    0 # Dump executed instructions' debug information to file
-gpgpu_ptx_inst_debug_file       inst_debug.txt # Executed instructions' debug output file
-gpgpu_ptx_inst_debug_thread_uid                    1 # Thread UID for executed instructions' debug output
-gpgpu_simd_model                       1 # 1 = post-dominator
-gpgpu_shader_core_pipeline              1536:32 # shader core pipeline config, i.e., {<nthread>:<warpsize>}
-gpgpu_tex_cache:l1  4:128:24,L:R:m:N:L,F:128:4,128:2 # per-shader L1 texture cache  (READ-ONLY) config  {<nsets>:<bsize>:<assoc>,<rep>:<wr>:<alloc>:<wr_alloc>,<mshr>:<N>:<merge>,<mq>:<rf>}
-gpgpu_const_cache:l1 64:64:2,L:R:f:N:L,A:2:32,4 # per-shader L1 constant memory cache  (READ-ONLY) config  {<nsets>:<bsize>:<assoc>,<rep>:<wr>:<alloc>:<wr_alloc>,<mshr>:<N>:<merge>,<mq>} 
-gpgpu_cache:il1     4:128:4,L:R:f:N:L,A:2:32,4 # shader L1 instruction cache config  {<nsets>:<bsize>:<assoc>,<rep>:<wr>:<alloc>:<wr_alloc>,<mshr>:<N>:<merge>,<mq>} 
-gpgpu_cache:dl1     32:128:4,L:L:m:N:H,A:32:8,8 # per-shader L1 data cache config  {<nsets>:<bsize>:<assoc>,<rep>:<wr>:<alloc>:<wr_alloc>,<mshr>:<N>:<merge>,<mq> | none}
-gpgpu_cache:dl1PrefL1                 none # per-shader L1 data cache config  {<nsets>:<bsize>:<assoc>,<rep>:<wr>:<alloc>:<wr_alloc>,<mshr>:<N>:<merge>,<mq> | none}
-gpgpu_cache:dl1PreShared                 none # per-shader L1 data cache config  {<nsets>:<bsize>:<assoc>,<rep>:<wr>:<alloc>:<wr_alloc>,<mshr>:<N>:<merge>,<mq> | none}
-gmem_skip_L1D                          0 # global memory access skip L1D cache (implements -Xptxas -dlcm=cg, default=no skip)
-gpgpu_perfect_mem                      0 # enable perfect memory mode (no cache miss)
-n_regfile_gating_group                    4 # group of lanes that should be read/written together)
-gpgpu_clock_gated_reg_file                    0 # enable clock gated reg file for power calculations
-gpgpu_clock_gated_lanes                    0 # enable clock gated lanes for power calculations
-gpgpu_shader_registers                32768 # Number of registers per shader core. Limits number of concurrent CTAs. (default 8192)
-gpgpu_shader_cta                       8 # Maximum number of concurrent CTAs in shader (default 8)
-gpgpu_num_cta_barriers                   16 # Maximum number of named barriers per CTA (default 16)
-gpgpu_n_clusters                      15 # number of processing clusters
-gpgpu_n_cores_per_cluster                    1 # number of simd cores per cluster
-gpgpu_n_cluster_ejection_buffer_size                    8 # number of packets in ejection buffer
-gpgpu_n_ldst_response_buffer_size                    2 # number of response packets in ld/st unit ejection buffer
-gpgpu_shmem_size                   16384 # Size of shared memory per shader core (default 16kB)
-gpgpu_shmem_size                   49152 # Size of shared memory per shader core (default 16kB)
-gpgpu_shmem_size_PrefL1                16384 # Size of shared memory per shader core (default 16kB)
-gpgpu_shmem_size_PrefShared                16384 # Size of shared memory per shader core (default 16kB)
-gpgpu_shmem_num_banks                   32 # Number of banks in the shared memory in each shader core (default 16)
-gpgpu_shmem_limited_broadcast                    0 # Limit shared memory to do one broadcast per cycle (default on)
-gpgpu_shmem_warp_parts                    1 # Number of portions a warp is divided into for shared memory bank conflict check 
-gpgpu_warpdistro_shader                   -1 # Specify which shader core to collect the warp size distribution from
-gpgpu_warp_issue_shader                    0 # Specify which shader core to collect the warp issue distribution from
-gpgpu_local_mem_map                    1 # Mapping from local memory space address to simulated GPU physical address space (default = enabled)
-gpgpu_num_reg_banks                   16 # Number of register banks (default = 8)
-gpgpu_reg_bank_use_warp_id                    0 # Use warp ID in mapping registers to banks (default = off)
-gpgpu_operand_collector_num_units_sp                    6 # number of collector units (default = 4)
-gpgpu_operand_collector_num_units_sfu                    8 # number of collector units (default = 4)
-gpgpu_operand_collector_num_units_mem                    2 # number of collector units (default = 2)
-gpgpu_operand_collector_num_units_gen                    0 # number of collector units (default = 0)
-gpgpu_operand_collector_num_in_ports_sp                    2 # number of collector unit in ports (default = 1)
-gpgpu_operand_collector_num_in_ports_sfu                    1 # number of collector unit in ports (default = 1)
-gpgpu_operand_collector_num_in_ports_mem                    1 # number of collector unit in ports (default = 1)
-gpgpu_operand_collector_num_in_ports_gen                    0 # number of collector unit in ports (default = 0)
-gpgpu_operand_collector_num_out_ports_sp                    2 # number of collector unit in ports (default = 1)
-gpgpu_operand_collector_num_out_ports_sfu                    1 # number of collector unit in ports (default = 1)
-gpgpu_operand_collector_num_out_ports_mem                    1 # number of collector unit in ports (default = 1)
-gpgpu_operand_collector_num_out_ports_gen                    0 # number of collector unit in ports (default = 0)
-gpgpu_coalesce_arch                   13 # Coalescing arch (default = 13, anything else is off for now)
-gpgpu_num_sched_per_core                    2 # Number of warp schedulers per core
-gpgpu_max_insn_issue_per_warp                    1 # Max number of instructions that can be issued per warp in one cycle by scheduler
-gpgpu_simt_core_sim_order                    1 # Select the simulation order of cores in a cluster (0=Fix, 1=Round-Robin)
-gpgpu_pipeline_widths        2,1,1,2,1,1,2 # Pipeline widths ID_OC_SP,ID_OC_SFU,ID_OC_MEM,OC_EX_SP,OC_EX_SFU,OC_EX_MEM,EX_WB
-gpgpu_num_sp_units                     2 # Number of SP units (default=1)
-gpgpu_num_sfu_units                    1 # Number of SF units (default=1)
-gpgpu_num_mem_units                    1 # Number if ldst units (default=1) WARNING: not hooked up to anything
-gpgpu_scheduler                      gto # Scheduler configuration: < lrr | gto | two_level_active > If two_level_active:<num_active_warps>:<inner_prioritization>:<outer_prioritization>For complete list of prioritization values see shader.h enum scheduler_prioritization_typeDefault: gto
-gpgpu_dram_scheduler                    1 # 0 = fifo, 1 = FR-FCFS (defaul)
-gpgpu_dram_partition_queues              8:8:8:8 # i2$:$2d:d2$:$2i
-l2_ideal                               0 # Use a ideal L2 cache that always hit
-gpgpu_cache:dl2     64:128:8,L:B:m:W:L,A:32:4,4:0,32 # unified banked L2 data cache config  {<nsets>:<bsize>:<assoc>,<rep>:<wr>:<alloc>:<wr_alloc>,<mshr>:<N>:<merge>,<mq>}
-gpgpu_cache:dl2_texture_only                    0 # L2 cache used for texture only
-gpgpu_n_mem                            6 # number of memory modules (e.g. memory controllers) in gpu
-gpgpu_n_sub_partition_per_mchannel                    2 # number of memory subpartition in each memory module
-gpgpu_n_mem_per_ctrlr                    2 # number of memory chips per memory controller
-gpgpu_memlatency_stat                   14 # track and display latency statistics 0x2 enables MC, 0x4 enables queue logs
-gpgpu_frfcfs_dram_sched_queue_size                   16 # 0 = unlimited (default); # entries per chip
-gpgpu_dram_return_queue_size                  116 # 0 = unlimited (default); # entries per chip
-gpgpu_dram_buswidth                    4 # default = 4 bytes (8 bytes per cycle at DDR)
-gpgpu_dram_burst_length                    8 # Burst length of each DRAM request (default = 4 data bus cycle)
-dram_data_command_freq_ratio                    4 # Frequency ratio between DRAM data bus and command bus (default = 2 times, i.e. DDR)
-gpgpu_dram_timing_opt nbk=16:CCD=2:RRD=6:RCD=12:RAS=28:RP=12:RC=40: CL=12:WL=4:CDLR=5:WR=12:nbkgrp=4:CCDL=3:RTPL=2 # DRAM timing parameters = {nbk:tCCD:tRRD:tRCD:tRAS:tRP:tRC:CL:WL:tCDLR:tWR:nbkgrp:tCCDL:tRTPL}
-rop_latency                          120 # ROP queue latency (default 85)
-dram_latency                         100 # DRAM latency (default 30)
-gpgpu_mem_addr_mapping dramid@8;00000000.00000000.00000000.00000000.0000RRRR.RRRRRRRR.BBBCCCCB.CCSSSSSS # mapping memory address to dram model {dramid@<start bit>;<memory address map>}
-gpgpu_mem_addr_test                    0 # run sweep test to check address mapping for aliased address
-gpgpu_mem_address_mask                    1 # 0 = old addressing mask, 1 = new addressing mask, 2 = new add. mask + flipped bank sel and chip sel bits
-gpuwattch_xml_file  gpuwattch_gtx480.xml # GPUWattch XML file
-power_simulation_enabled                    1 # Turn on power simulator (1=On, 0=Off)
-power_per_cycle_dump                    0 # Dump detailed power output each cycle
-power_trace_enabled                    0 # produce a file for the power trace (1=On, 0=Off)
-power_trace_zlevel                     6 # Compression level of the power trace output log (0=no comp, 9=highest)
-steady_power_levels_enabled                    0 # produce a file for the steady power levels (1=On, 0=Off)
-steady_state_definition                  8:4 # allowed deviation:number of samples
-gpgpu_max_cycle                        0 # terminates gpu simulation early (0 = no limit)
-gpgpu_max_insn                         0 # terminates gpu simulation early (0 = no limit)
-gpgpu_max_cta                          0 # terminates gpu simulation early (0 = no limit)
-gpgpu_runtime_stat                   500 # display runtime statistics such as dram utilization {<freq>:<flag>}
-liveness_message_freq                    1 # Minimum number of seconds between simulation liveness messages (0 = always print)
-gpgpu_flush_l1_cache                    0 # Flush L1 cache at the end of each kernel call
-gpgpu_flush_l2_cache                    0 # Flush L2 cache at the end of each kernel call
-gpgpu_deadlock_detect                    1 # Stop the simulation at deadlock (1=on (default), 0=off)
-gpgpu_ptx_instruction_classification                    0 # if enabled will classify ptx instruction types per kernel (Max 255 kernels now)
-gpgpu_ptx_sim_mode                     0 # Select between Performance (default) or Functional simulation (1)
-gpgpu_clock_domains 700.0:700.0:700.0:924.0 # Clock Domain Frequencies in MhZ {<Core Clock>:<ICNT Clock>:<L2 Clock>:<DRAM Clock>}
-gpgpu_max_concurrent_kernel                    8 # maximum kernels that can run concurrently on GPU
-gpgpu_cflog_interval                    0 # Interval between each snapshot in control flow logger
-visualizer_enabled                     0 # Turn on visualizer output (1=On, 0=Off)
-visualizer_outputfile                 NULL # Specifies the output log file for visualizer
-visualizer_zlevel                      6 # Compression level of the visualizer output log (0=no comp, 9=highest)
-trace_enabled                          0 # Turn on traces
-trace_components                    none # comma seperated list of traces to enable. Complete list found in trace_streams.tup. Default none
-trace_sampling_core                    0 # The core which is printed using CORE_DPRINTF. Default 0
-trace_sampling_memory_partition                   -1 # The memory partition which is printed using MEMPART_DPRINTF. Default -1 (i.e. all)
-enable_ptx_file_line_stats                    1 # Turn on PTX source line statistic profiling. (1 = On)
-ptx_line_stats_filename gpgpu_inst_stats.txt # Output file for PTX source line statistics.
-save_embedded_ptx                      0 # saves ptx files embedded in binary as <n>.ptx
-keep                                   0 # keep intermediate files created by GPGPU-Sim when interfacing with external programs
-gpgpu_ptx_save_converted_ptxplus                    0 # Saved converted ptxplus to a file
-ptx_opcode_latency_int         4,13,4,5,145 # Opcode latencies for integers <ADD,MAX,MUL,MAD,DIV>Default 1,1,19,25,145
-ptx_opcode_latency_fp          4,13,4,5,39 # Opcode latencies for single precision floating points <ADD,MAX,MUL,MAD,DIV>Default 1,1,1,1,30
-ptx_opcode_latency_dp         8,19,8,8,330 # Opcode latencies for double precision floating points <ADD,MAX,MUL,MAD,DIV>Default 8,8,8,8,335
-ptx_opcode_initiation_int            1,2,2,1,8 # Opcode initiation intervals for integers <ADD,MAX,MUL,MAD,DIV>Default 1,1,4,4,32
-ptx_opcode_initiation_fp            1,2,1,1,4 # Opcode initiation intervals for single precision floating points <ADD,MAX,MUL,MAD,DIV>Default 1,1,1,1,5
-ptx_opcode_initiation_dp         8,16,8,8,130 # Opcode initiation intervals for double precision floating points <ADD,MAX,MUL,MAD,DIV>Default 8,8,8,8,130
DRAM Timing Options:
nbk                                    16 # number of banks
CCD                                     2 # column to column delay
RRD                                     6 # minimal delay between activation of rows in different banks
RCD                                    12 # row to column delay
RAS                                    28 # time needed to activate row
RP                                     12 # time needed to precharge (deactivate) row
RC                                     40 # row cycle time
CDLR                                    5 # switching from write to read (changes tWTR)
WR                                     12 # last data-in to row precharge
CL                                     12 # CAS latency
WL                                      4 # Write latency
nbkgrp                                  4 # number of bank groups
CCDL                                    3 # column to column delay between accesses to different bank groups
RTPL                                    2 # read to precharge delay between accesses to different bank groups
Total number of memory sub partition = 12
addr_dec_mask[CHIP]  = 0000000000000000 	high:64 low:0
addr_dec_mask[BK]    = 000000000000e100 	high:16 low:8
addr_dec_mask[ROW]   = 000000000fff0000 	high:28 low:16
addr_dec_mask[COL]   = 0000000000001eff 	high:13 low:0
addr_dec_mask[BURST] = 000000000000003f 	high:6 low:0
sub_partition_id_mask = 0000000000000100
GPGPU-Sim uArch: clock freqs: 700000000.000000:700000000.000000:700000000.000000:924000000.000000
GPGPU-Sim uArch: clock periods: 0.00000000142857142857:0.00000000142857142857:0.00000000142857142857:0.00000000108225108225
*** Initializing Memory Statistics ***
GPGPU-Sim uArch: interconnect node map (shaderID+MemID to icntID)
GPGPU-Sim uArch: Memory nodes ID start from index: 15
GPGPU-Sim uArch:    0   1   2   3   4
GPGPU-Sim uArch:    5   6   7   8   9
GPGPU-Sim uArch:   10  11  12  13  14
GPGPU-Sim uArch:   15  16  17  18  19
GPGPU-Sim uArch:   20  21  22  23  24
GPGPU-Sim uArch:   25  26
GPGPU-Sim uArch: interconnect node reverse map (icntID to shaderID+MemID)
GPGPU-Sim uArch: Memory nodes start from ID: 15
GPGPU-Sim uArch:    0   1   2   3   4
GPGPU-Sim uArch:    5   6   7   8   9
GPGPU-Sim uArch:   10  11  12  13  14
GPGPU-Sim uArch:   15  16  17  18  19
GPGPU-Sim uArch:   20  21  22  23  24
GPGPU-Sim uArch:   25  26
853f47ba22664e02fad80c6cf95d7ec5  /root/ee217/lab1/optimized/reduction
GPGPU-Sim uArch: performance model initialization complete.
GPGPU-Sim PTX: __cudaRegisterFatBinary, fat_cubin_handle = 1, filename=main.cu
self exe links to: /root/ee217/lab1/optimized/reduction
Running md5sum using "md5sum /root/ee217/lab1/optimized/reduction "
Running cuobjdump using "$CUDA_INSTALL_PATH/bin/cuobjdump -ptx -elf -sass /root/ee217/lab1/optimized/reduction > _cuobjdump_complete_output_HHdmnV"
Parsing file _cuobjdump_complete_output_HHdmnV
######### cuobjdump parser ########
## Adding new section ELF
Adding arch: sm_10
Adding identifier: main.cu
## Adding new section PTX
Adding ptx filename: _cuobjdump_1.ptx
Adding arch: sm_10
Adding identifier: main.cu
## Adding new section ELF
Adding arch: sm_10
Adding identifier: support.cu
## Adding new section PTX
Adding ptx filename: _cuobjdump_2.ptx
Adding arch: sm_10
Adding identifier: support.cu
Done parsing!!!
GPGPU-Sim PTX: __cudaRegisterFunction _Z9reductionPfS_j : hostFun 0x0x400e40, fat_cubin_handle = 1
GPGPU-Sim PTX: allocating shared region for "__cuda___cuda_local_var_16314_35_non_const_partialSum20" from 0x0 to 0x1000 (shared memory space)
GPGPU-Sim PTX: instruction assembly for function '_Z9reductionPfS_j'...   done.
GPGPU-Sim PTX: finding reconvergence points for '_Z9reductionPfS_j'...
GPGPU-Sim PTX: Finding dominators for '_Z9reductionPfS_j'...
GPGPU-Sim PTX: Finding immediate dominators for '_Z9reductionPfS_j'...
GPGPU-Sim PTX: Finding postdominators for '_Z9reductionPfS_j'...
GPGPU-Sim PTX: Finding immediate postdominators for '_Z9reductionPfS_j'...
GPGPU-Sim PTX: pre-decoding instructions for '_Z9reductionPfS_j'...
GPGPU-Sim PTX: reconvergence points for _Z9reductionPfS_j...
GPGPU-Sim PTX:  1 (potential) branch divergence @  PC=0x0f0 (_1.ptx:94) @%p1 bra $Lt_0_3074;
GPGPU-Sim PTX:    immediate post dominator      @  PC=0x1b0 (_1.ptx:124) mov.u32 %r22, 0;
GPGPU-Sim PTX:  2 (potential) branch divergence @  PC=0x148 (_1.ptx:107) @%p2 bra $Lt_0_3842;
GPGPU-Sim PTX:    immediate post dominator      @  PC=0x190 (_1.ptx:119) shr.u32 %r10, %r10, 1;
GPGPU-Sim PTX:  3 (potential) branch divergence @  PC=0x1a8 (_1.ptx:122) @%p3 bra $Lt_0_3586;
GPGPU-Sim PTX:    immediate post dominator      @  PC=0x1b0 (_1.ptx:124) mov.u32 %r22, 0;
GPGPU-Sim PTX:  4 (potential) branch divergence @  PC=0x1c0 (_1.ptx:126) @%p4 bra $Lt_0_4610;
GPGPU-Sim PTX:    immediate post dominator      @  PC=0x1f8 (_1.ptx:136) exit;
GPGPU-Sim PTX: ... end of reconvergence points for _Z9reductionPfS_j
GPGPU-Sim PTX: ... done pre-decoding instructions for '_Z9reductionPfS_j'.
GPGPU-Sim PTX: finished parsing EMBEDDED .ptx file _1.ptx
Adding _cuobjdump_1.ptx with cubin handle 1
GPGPU-Sim PTX: extracting embedded .ptx to temporary file "_ptx_MsWJ9w"
Running: cat _ptx_MsWJ9w | sed 's/.version 1.5/.version 1.4/' | sed 's/, texmode_independent//' | sed 's/\(\.extern \.const\[1\] .b8 \w\+\)\[\]/\1\[1\]/' | sed 's/const\[.\]/const\[0\]/g' > _ptx2_HX08V8
GPGPU-Sim PTX: generating ptxinfo using "$CUDA_INSTALL_PATH/bin/ptxas --gpu-name=sm_20 -v _ptx2_HX08V8 --output-file  /dev/null 2> _ptx_MsWJ9winfo"
GPGPU-Sim PTX: Kernel '_Z9reductionPfS_j' : regs=12, lmem=0, smem=4096, cmem=52
GPGPU-Sim PTX: removing ptxinfo using "rm -f _ptx_MsWJ9w _ptx2_HX08V8 _ptx_MsWJ9winfo"
GPGPU-Sim PTX: loading globals with explicit initializers... 
GPGPU-Sim PTX: finished loading globals (0 bytes total).
GPGPU-Sim PTX: loading constants with explicit initializers...  done.
GPGPU-Sim PTX: __cudaRegisterFatBinary, fat_cubin_handle = 2, filename=support.cu

Setting up the problem...0.021445 s
    Input size = 1000000
Allocating device variables...0.000005 s
Copying data from host to device...0.103210 s
Launching kernel...
GPGPU-Sim PTX: cudaLaunch for 0x0x400e40 (mode=performance simulation) on stream 0
GPGPU-Sim PTX: pushing kernel '_Z9reductionPfS_j' to stream 0, gridDim= (977,1,1) blockDim = (512,1,1) 
kernel '_Z9reductionPfS_j' transfer to GPU hardware scheduler
GPGPU-Sim uArch: Shader 1 bind to kernel 1 '_Z9reductionPfS_j'
GPGPU-Sim uArch: CTA/core = 3, limited by: threads
GPGPU-Sim uArch: core:  1, cta: 0 initialized @(1,0)
GPGPU-Sim uArch: Shader 2 bind to kernel 1 '_Z9reductionPfS_j'
GPGPU-Sim uArch: core:  2, cta: 0 initialized @(1,0)
GPGPU-Sim uArch: Shader 3 bind to kernel 1 '_Z9reductionPfS_j'
GPGPU-Sim uArch: core:  3, cta: 0 initialized @(1,0)
GPGPU-Sim uArch: Shader 4 bind to kernel 1 '_Z9reductionPfS_j'
GPGPU-Sim uArch: core:  4, cta: 0 initialized @(1,0)
GPGPU-Sim uArch: Shader 5 bind to kernel 1 '_Z9reductionPfS_j'
GPGPU-Sim uArch: core:  5, cta: 0 initialized @(1,0)
GPGPU-Sim uArch: Shader 6 bind to kernel 1 '_Z9reductionPfS_j'
GPGPU-Sim uArch: core:  6, cta: 0 initialized @(1,0)
GPGPU-Sim uArch: Shader 7 bind to kernel 1 '_Z9reductionPfS_j'
GPGPU-Sim uArch: core:  7, cta: 0 initialized @(1,0)
GPGPU-Sim uArch: Shader 8 bind to kernel 1 '_Z9reductionPfS_j'
GPGPU-Sim uArch: core:  8, cta: 0 initialized @(1,0)
GPGPU-Sim uArch: Shader 9 bind to kernel 1 '_Z9reductionPfS_j'
GPGPU-Sim uArch: core:  9, cta: 0 initialized @(1,0)
GPGPU-Sim uArch: Shader 10 bind to kernel 1 '_Z9reductionPfS_j'
GPGPU-Sim uArch: core: 10, cta: 0 initialized @(1,0)
GPGPU-Sim uArch: Shader 11 bind to kernel 1 '_Z9reductionPfS_j'
GPGPU-Sim uArch: core: 11, cta: 0 initialized @(1,0)
GPGPU-Sim uArch: Shader 12 bind to kernel 1 '_Z9reductionPfS_j'
GPGPU-Sim uArch: core: 12, cta: 0 initialized @(1,0)
GPGPU-Sim uArch: Shader 13 bind to kernel 1 '_Z9reductionPfS_j'
GPGPU-Sim uArch: core: 13, cta: 0 initialized @(1,0)
GPGPU-Sim uArch: Shader 14 bind to kernel 1 '_Z9reductionPfS_j'
GPGPU-Sim uArch: core: 14, cta: 0 initialized @(1,0)
GPGPU-Sim uArch: Shader 0 bind to kernel 1 '_Z9reductionPfS_j'
GPGPU-Sim uArch: core:  0, cta: 0 initialized @(1,0)
GPGPU-Sim uArch: core:  1, cta: 1 initialized @(2,0)
GPGPU-Sim uArch: core:  2, cta: 1 initialized @(2,0)
GPGPU-Sim uArch: core:  3, cta: 1 initialized @(2,0)
GPGPU-Sim uArch: core:  4, cta: 1 initialized @(2,0)
GPGPU-Sim uArch: core:  5, cta: 1 initialized @(2,0)
GPGPU-Sim uArch: core:  6, cta: 1 initialized @(2,0)
GPGPU-Sim uArch: core:  7, cta: 1 initialized @(2,0)
GPGPU-Sim uArch: core:  8, cta: 1 initialized @(2,0)
GPGPU-Sim uArch: core:  9, cta: 1 initialized @(2,0)
GPGPU-Sim uArch: core: 10, cta: 1 initialized @(2,0)
GPGPU-Sim uArch: core: 11, cta: 1 initialized @(2,0)
GPGPU-Sim uArch: core: 12, cta: 1 initialized @(2,0)
GPGPU-Sim uArch: core: 13, cta: 1 initialized @(2,0)
GPGPU-Sim uArch: core: 14, cta: 1 initialized @(2,0)
GPGPU-Sim uArch: core:  0, cta: 1 initialized @(2,0)
GPGPU-Sim uArch: core:  1, cta: 2 initialized @(3,0)
GPGPU-Sim uArch: core:  2, cta: 2 initialized @(3,0)
GPGPU-Sim uArch: core:  3, cta: 2 initialized @(3,0)
GPGPU-Sim uArch: core:  4, cta: 2 initialized @(3,0)
GPGPU-Sim uArch: core:  5, cta: 2 initialized @(3,0)
GPGPU-Sim uArch: core:  6, cta: 2 initialized @(3,0)
GPGPU-Sim uArch: core:  7, cta: 2 initialized @(3,0)
GPGPU-Sim uArch: core:  8, cta: 2 initialized @(3,0)
GPGPU-Sim uArch: core:  9, cta: 2 initialized @(3,0)
GPGPU-Sim uArch: core: 10, cta: 2 initialized @(3,0)
GPGPU-Sim uArch: core: 11, cta: 2 initialized @(3,0)
GPGPU-Sim uArch: core: 12, cta: 2 initialized @(3,0)
GPGPU-Sim uArch: core: 13, cta: 2 initialized @(3,0)
GPGPU-Sim uArch: core: 14, cta: 2 initialized @(3,0)
GPGPU-Sim uArch: core:  0, cta: 2 initialized @(3,0)
GPGPU-Sim PTX: 100000 instructions simulated : ctaid=(15,0,0) tid=(191,0,0)
GPGPU-Sim uArch: cycles simulated: 500  inst.: 134528 (ipc=269.1) sim_rate=134528 (inst/sec) elapsed = 0:0:00:01 / Mon Jan 28 00:56:30 2019
GPGPU-Sim PTX: 200000 instructions simulated : ctaid=(28,0,0) tid=(95,0,0)
GPGPU-Sim PTX: 300000 instructions simulated : ctaid=(19,0,0) tid=(191,0,0)
GPGPU-Sim PTX: 400000 instructions simulated : ctaid=(0,0,0) tid=(191,0,0)
GPGPU-Sim PTX: 500000 instructions simulated : ctaid=(4,0,0) tid=(511,0,0)
GPGPU-Sim PTX: 600000 instructions simulated : ctaid=(18,0,0) tid=(159,0,0)
GPGPU-Sim PTX: 700000 instructions simulated : ctaid=(38,0,0) tid=(351,0,0)
GPGPU-Sim PTX: 800000 instructions simulated : ctaid=(9,0,0) tid=(415,0,0)
GPGPU-Sim PTX: 900000 instructions simulated : ctaid=(15,0,0) tid=(447,0,0)
GPGPU-Sim PTX: 1000000 instructions simulated : ctaid=(23,0,0) tid=(511,0,0)
GPGPU-Sim PTX: 1100000 instructions simulated : ctaid=(19,0,0) tid=(63,0,0)
GPGPU-Sim PTX: 1200000 instructions simulated : ctaid=(2,0,0) tid=(319,0,0)
GPGPU-Sim PTX: 1300000 instructions simulated : ctaid=(23,0,0) tid=(159,0,0)
GPGPU-Sim PTX: 1400000 instructions simulated : ctaid=(29,0,0) tid=(159,0,0)
GPGPU-Sim uArch: cycles simulated: 3500  inst.: 1420096 (ipc=405.7) sim_rate=710048 (inst/sec) elapsed = 0:0:00:02 / Mon Jan 28 00:56:32 2019
GPGPU-Sim PTX: 1500000 instructions simulated : ctaid=(29,0,0) tid=(351,0,0)
GPGPU-Sim PTX: 1600000 instructions simulated : ctaid=(2,0,0) tid=(287,0,0)
GPGPU-Sim PTX: 1700000 instructions simulated : ctaid=(21,0,0) tid=(255,0,0)
GPGPU-Sim PTX: 1800000 instructions simulated : ctaid=(19,0,0) tid=(479,0,0)
GPGPU-Sim PTX: 1900000 instructions simulated : ctaid=(5,0,0) tid=(159,0,0)
GPGPU-Sim PTX: 2000000 instructions simulated : ctaid=(32,0,0) tid=(127,0,0)
GPGPU-Sim PTX: 2100000 instructions simulated : ctaid=(18,0,0) tid=(511,0,0)
GPGPU-Sim PTX: 2200000 instructions simulated : ctaid=(16,0,0) tid=(63,0,0)
GPGPU-Sim PTX: 2300000 instructions simulated : ctaid=(42,0,0) tid=(159,0,0)
GPGPU-Sim PTX: 2400000 instructions simulated : ctaid=(32,0,0) tid=(511,0,0)
GPGPU-Sim PTX: 2500000 instructions simulated : ctaid=(10,0,0) tid=(447,0,0)
GPGPU-Sim PTX: 2600000 instructions simulated : ctaid=(17,0,0) tid=(207,0,0)
GPGPU-Sim PTX: 2700000 instructions simulated : ctaid=(25,0,0) tid=(239,0,0)
GPGPU-Sim PTX: 2800000 instructions simulated : ctaid=(16,0,0) tid=(271,0,0)
GPGPU-Sim PTX: 2900000 instructions simulated : ctaid=(10,0,0) tid=(255,0,0)
GPGPU-Sim PTX: 3000000 instructions simulated : ctaid=(42,0,0) tid=(71,0,0)
GPGPU-Sim uArch: cycles simulated: 5500  inst.: 2955688 (ipc=537.4) sim_rate=985229 (inst/sec) elapsed = 0:0:00:03 / Mon Jan 28 00:56:33 2019
GPGPU-Sim PTX: 3100000 instructions simulated : ctaid=(21,0,0) tid=(287,0,0)
GPGPU-Sim PTX: 3200000 instructions simulated : ctaid=(35,0,0) tid=(95,0,0)
GPGPU-Sim PTX: 3300000 instructions simulated : ctaid=(8,0,0) tid=(35,0,0)
GPGPU-Sim PTX: 3400000 instructions simulated : ctaid=(26,0,0) tid=(175,0,0)
GPGPU-Sim PTX: 3500000 instructions simulated : ctaid=(37,0,0) tid=(91,0,0)
GPGPU-Sim PTX: 3600000 instructions simulated : ctaid=(0,0,0) tid=(211,0,0)
GPGPU-Sim PTX: 3700000 instructions simulated : ctaid=(25,0,0) tid=(427,0,0)
GPGPU-Sim PTX: 3800000 instructions simulated : ctaid=(30,0,0) tid=(235,0,0)
GPGPU-Sim PTX: 3900000 instructions simulated : ctaid=(11,0,0) tid=(106,0,0)
GPGPU-Sim PTX: 4000000 instructions simulated : ctaid=(23,0,0) tid=(115,0,0)
GPGPU-Sim PTX: 4100000 instructions simulated : ctaid=(16,0,0) tid=(32,0,0)
GPGPU-Sim uArch: cycles simulated: 7000  inst.: 4050592 (ipc=578.7) sim_rate=1012648 (inst/sec) elapsed = 0:0:00:04 / Mon Jan 28 00:56:34 2019
GPGPU-Sim PTX: 4200000 instructions simulated : ctaid=(31,0,0) tid=(272,0,0)
GPGPU-Sim uArch: Shader 5 finished CTA #0 (7219,0), 2 CTAs running
GPGPU-Sim uArch: core:  5, cta: 0 initialized @(7220,0)
GPGPU-Sim uArch: Shader 7 finished CTA #0 (7238,0), 2 CTAs running
GPGPU-Sim uArch: core:  7, cta: 0 initialized @(7239,0)
GPGPU-Sim PTX: 4300000 instructions simulated : ctaid=(39,0,0) tid=(170,0,0)
GPGPU-Sim uArch: Shader 12 finished CTA #0 (7239,0), 2 CTAs running
GPGPU-Sim uArch: core: 12, cta: 0 initialized @(7240,0)
GPGPU-Sim uArch: Shader 3 finished CTA #0 (7241,0), 2 CTAs running
GPGPU-Sim uArch: core:  3, cta: 0 initialized @(7242,0)
GPGPU-Sim uArch: Shader 0 finished CTA #0 (7242,0), 2 CTAs running
GPGPU-Sim uArch: core:  0, cta: 0 initialized @(7243,0)
GPGPU-Sim uArch: Shader 2 finished CTA #1 (7246,0), 2 CTAs running
GPGPU-Sim uArch: core:  2, cta: 1 initialized @(7247,0)
GPGPU-Sim uArch: Shader 8 finished CTA #0 (7247,0), 2 CTAs running
GPGPU-Sim uArch: core:  8, cta: 0 initialized @(7248,0)
GPGPU-Sim uArch: Shader 5 finished CTA #1 (7256,0), 2 CTAs running
GPGPU-Sim uArch: core:  5, cta: 1 initialized @(7257,0)
GPGPU-Sim uArch: Shader 3 finished CTA #1 (7258,0), 2 CTAs running
GPGPU-Sim uArch: Shader 11 finished CTA #0 (7258,0), 2 CTAs running
GPGPU-Sim uArch: core: 11, cta: 0 initialized @(7259,0)
GPGPU-Sim uArch: core:  3, cta: 1 initialized @(7259,0)
GPGPU-Sim uArch: Shader 13 finished CTA #0 (7262,0), 2 CTAs running
GPGPU-Sim uArch: core: 13, cta: 0 initialized @(7263,0)
GPGPU-Sim uArch: Shader 4 finished CTA #0 (7264,0), 2 CTAs running
GPGPU-Sim uArch: core:  4, cta: 0 initialized @(7265,0)
GPGPU-Sim uArch: Shader 14 finished CTA #0 (7265,0), 2 CTAs running
GPGPU-Sim uArch: Shader 14 finished CTA #1 (7265,0), 1 CTAs running
GPGPU-Sim uArch: core: 14, cta: 0 initialized @(7266,0)
GPGPU-Sim uArch: core: 14, cta: 1 initialized @(7267,0)
GPGPU-Sim uArch: Shader 8 finished CTA #1 (7267,0), 2 CTAs running
GPGPU-Sim uArch: core:  8, cta: 1 initialized @(7268,0)
GPGPU-Sim uArch: Shader 0 finished CTA #1 (7269,0), 2 CTAs running
GPGPU-Sim uArch: core:  0, cta: 1 initialized @(7270,0)
GPGPU-Sim uArch: Shader 1 finished CTA #0 (7273,0), 2 CTAs running
GPGPU-Sim uArch: core:  1, cta: 0 initialized @(7274,0)
GPGPU-Sim uArch: Shader 2 finished CTA #0 (7279,0), 2 CTAs running
GPGPU-Sim uArch: core:  2, cta: 0 initialized @(7280,0)
GPGPU-Sim uArch: Shader 11 finished CTA #1 (7290,0), 2 CTAs running
GPGPU-Sim uArch: core: 11, cta: 1 initialized @(7291,0)
GPGPU-Sim uArch: Shader 9 finished CTA #0 (7296,0), 2 CTAs running
GPGPU-Sim uArch: core:  9, cta: 0 initialized @(7297,0)
GPGPU-Sim uArch: Shader 7 finished CTA #1 (7310,0), 2 CTAs running
GPGPU-Sim uArch: core:  7, cta: 1 initialized @(7311,0)
GPGPU-Sim uArch: Shader 4 finished CTA #1 (7323,0), 2 CTAs running
GPGPU-Sim uArch: core:  4, cta: 1 initialized @(7324,0)
GPGPU-Sim uArch: Shader 1 finished CTA #1 (7336,0), 2 CTAs running
GPGPU-Sim uArch: core:  1, cta: 1 initialized @(7337,0)
GPGPU-Sim uArch: Shader 6 finished CTA #0 (7341,0), 2 CTAs running
GPGPU-Sim uArch: core:  6, cta: 0 initialized @(7342,0)
GPGPU-Sim uArch: Shader 10 finished CTA #0 (7345,0), 2 CTAs running
GPGPU-Sim uArch: core: 10, cta: 0 initialized @(7346,0)
GPGPU-Sim uArch: Shader 13 finished CTA #1 (7346,0), 2 CTAs running
GPGPU-Sim uArch: core: 13, cta: 1 initialized @(7347,0)
GPGPU-Sim PTX: 4400000 instructions simulated : ctaid=(58,0,0) tid=(466,0,0)
GPGPU-Sim uArch: Shader 12 finished CTA #1 (7380,0), 2 CTAs running
GPGPU-Sim uArch: core: 12, cta: 1 initialized @(7381,0)
GPGPU-Sim uArch: Shader 9 finished CTA #1 (7387,0), 2 CTAs running
GPGPU-Sim uArch: core:  9, cta: 1 initialized @(7388,0)
GPGPU-Sim uArch: Shader 6 finished CTA #1 (7403,0), 2 CTAs running
GPGPU-Sim uArch: core:  6, cta: 1 initialized @(7404,0)
GPGPU-Sim uArch: Shader 10 finished CTA #1 (7404,0), 2 CTAs running
GPGPU-Sim uArch: core: 10, cta: 1 initialized @(7405,0)
GPGPU-Sim PTX: 4500000 instructions simulated : ctaid=(63,0,0) tid=(143,0,0)
GPGPU-Sim PTX: 4600000 instructions simulated : ctaid=(66,0,0) tid=(410,0,0)
GPGPU-Sim uArch: Shader 1 finished CTA #2 (7654,0), 2 CTAs running
GPGPU-Sim uArch: core:  1, cta: 2 initialized @(7655,0)
GPGPU-Sim uArch: Shader 2 finished CTA #2 (7750,0), 2 CTAs running
GPGPU-Sim uArch: core:  2, cta: 2 initialized @(7751,0)
GPGPU-Sim PTX: 4700000 instructions simulated : ctaid=(47,0,0) tid=(473,0,0)
GPGPU-Sim uArch: Shader 4 finished CTA #2 (8132,0), 2 CTAs running
GPGPU-Sim uArch: core:  4, cta: 2 initialized @(8133,0)
GPGPU-Sim uArch: Shader 9 finished CTA #2 (8134,0), 2 CTAs running
GPGPU-Sim uArch: core:  9, cta: 2 initialized @(8135,0)
GPGPU-Sim uArch: Shader 6 finished CTA #2 (8156,0), 2 CTAs running
GPGPU-Sim uArch: core:  6, cta: 2 initialized @(8157,0)
GPGPU-Sim uArch: Shader 5 finished CTA #2 (8158,0), 2 CTAs running
GPGPU-Sim uArch: core:  5, cta: 2 initialized @(8159,0)
GPGPU-Sim uArch: Shader 3 finished CTA #2 (8160,0), 2 CTAs running
GPGPU-Sim uArch: core:  3, cta: 2 initialized @(8161,0)
GPGPU-Sim PTX: 4800000 instructions simulated : ctaid=(70,0,0) tid=(473,0,0)
GPGPU-Sim uArch: Shader 10 finished CTA #2 (8175,0), 2 CTAs running
GPGPU-Sim uArch: core: 10, cta: 2 initialized @(8176,0)
GPGPU-Sim uArch: Shader 0 finished CTA #2 (8176,0), 2 CTAs running
GPGPU-Sim uArch: core:  0, cta: 2 initialized @(8177,0)
GPGPU-Sim uArch: Shader 7 finished CTA #2 (8178,0), 2 CTAs running
GPGPU-Sim uArch: core:  7, cta: 2 initialized @(8179,0)
GPGPU-Sim uArch: Shader 12 finished CTA #2 (8180,0), 2 CTAs running
GPGPU-Sim uArch: core: 12, cta: 2 initialized @(8181,0)
GPGPU-Sim uArch: Shader 13 finished CTA #2 (8198,0), 2 CTAs running
GPGPU-Sim uArch: core: 13, cta: 2 initialized @(8199,0)
GPGPU-Sim uArch: Shader 8 finished CTA #2 (8205,0), 2 CTAs running
GPGPU-Sim uArch: core:  8, cta: 2 initialized @(8206,0)
GPGPU-Sim uArch: Shader 11 finished CTA #2 (8212,0), 2 CTAs running
GPGPU-Sim uArch: core: 11, cta: 2 initialized @(8213,0)
GPGPU-Sim uArch: Shader 14 finished CTA #2 (8218,0), 2 CTAs running
GPGPU-Sim uArch: core: 14, cta: 2 initialized @(8219,0)
GPGPU-Sim PTX: 4900000 instructions simulated : ctaid=(58,0,0) tid=(345,0,0)
GPGPU-Sim PTX: 5000000 instructions simulated : ctaid=(47,0,0) tid=(281,0,0)
GPGPU-Sim uArch: cycles simulated: 8500  inst.: 4897830 (ipc=576.2) sim_rate=979566 (inst/sec) elapsed = 0:0:00:05 / Mon Jan 28 00:56:35 2019
GPGPU-Sim PTX: 5100000 instructions simulated : ctaid=(48,0,0) tid=(345,0,0)
GPGPU-Sim PTX: 5200000 instructions simulated : ctaid=(65,0,0) tid=(25,0,0)
GPGPU-Sim PTX: 5300000 instructions simulated : ctaid=(46,0,0) tid=(505,0,0)
GPGPU-Sim PTX: 5400000 instructions simulated : ctaid=(53,0,0) tid=(409,0,0)
GPGPU-Sim PTX: 5500000 instructions simulated : ctaid=(70,0,0) tid=(57,0,0)
GPGPU-Sim PTX: 5600000 instructions simulated : ctaid=(46,0,0) tid=(441,0,0)
GPGPU-Sim PTX: 5700000 instructions simulated : ctaid=(51,0,0) tid=(473,0,0)
GPGPU-Sim PTX: 5800000 instructions simulated : ctaid=(74,0,0) tid=(153,0,0)
GPGPU-Sim uArch: cycles simulated: 9500  inst.: 5716102 (ipc=601.7) sim_rate=952683 (inst/sec) elapsed = 0:0:00:06 / Mon Jan 28 00:56:36 2019
GPGPU-Sim PTX: 5900000 instructions simulated : ctaid=(60,0,0) tid=(185,0,0)
GPGPU-Sim PTX: 6000000 instructions simulated : ctaid=(57,0,0) tid=(377,0,0)
GPGPU-Sim PTX: 6100000 instructions simulated : ctaid=(65,0,0) tid=(441,0,0)
GPGPU-Sim PTX: 6200000 instructions simulated : ctaid=(79,0,0) tid=(409,0,0)
GPGPU-Sim PTX: 6300000 instructions simulated : ctaid=(63,0,0) tid=(25,0,0)
GPGPU-Sim PTX: 6400000 instructions simulated : ctaid=(67,0,0) tid=(57,0,0)
GPGPU-Sim PTX: 6500000 instructions simulated : ctaid=(83,0,0) tid=(121,0,0)
GPGPU-Sim PTX: 6600000 instructions simulated : ctaid=(88,0,0) tid=(129,0,0)
GPGPU-Sim PTX: 6700000 instructions simulated : ctaid=(62,0,0) tid=(441,0,0)
GPGPU-Sim PTX: 6800000 instructions simulated : ctaid=(71,0,0) tid=(385,0,0)
GPGPU-Sim PTX: 6900000 instructions simulated : ctaid=(70,0,0) tid=(97,0,0)
GPGPU-Sim PTX: 7000000 instructions simulated : ctaid=(53,0,0) tid=(477,0,0)
GPGPU-Sim uArch: cycles simulated: 11000  inst.: 6885558 (ipc=626.0) sim_rate=983651 (inst/sec) elapsed = 0:0:00:07 / Mon Jan 28 00:56:37 2019
GPGPU-Sim PTX: 7100000 instructions simulated : ctaid=(75,0,0) tid=(121,0,0)
GPGPU-Sim PTX: 7200000 instructions simulated : ctaid=(76,0,0) tid=(65,0,0)
GPGPU-Sim PTX: 7300000 instructions simulated : ctaid=(67,0,0) tid=(135,0,0)
GPGPU-Sim PTX: 7400000 instructions simulated : ctaid=(89,0,0) tid=(425,0,0)
GPGPU-Sim PTX: 7500000 instructions simulated : ctaid=(75,0,0) tid=(411,0,0)
GPGPU-Sim PTX: 7600000 instructions simulated : ctaid=(55,0,0) tid=(409,0,0)
GPGPU-Sim PTX: 7700000 instructions simulated : ctaid=(84,0,0) tid=(169,0,0)
GPGPU-Sim PTX: 7800000 instructions simulated : ctaid=(59,0,0) tid=(239,0,0)
GPGPU-Sim PTX: 7900000 instructions simulated : ctaid=(86,0,0) tid=(483,0,0)
GPGPU-Sim uArch: Shader 1 finished CTA #0 (12170,0), 2 CTAs running
GPGPU-Sim uArch: core:  1, cta: 0 initialized @(12171,0)
GPGPU-Sim uArch: Shader 2 finished CTA #1 (12207,0), 2 CTAs running
GPGPU-Sim uArch: core:  2, cta: 1 initialized @(12208,0)
GPGPU-Sim PTX: 8000000 instructions simulated : ctaid=(72,0,0) tid=(428,0,0)
GPGPU-Sim uArch: Shader 4 finished CTA #0 (12292,0), 2 CTAs running
GPGPU-Sim uArch: core:  4, cta: 0 initialized @(12293,0)
GPGPU-Sim uArch: Shader 12 finished CTA #0 (12365,0), 2 CTAs running
GPGPU-Sim uArch: core: 12, cta: 0 initialized @(12366,0)
GPGPU-Sim PTX: 8100000 instructions simulated : ctaid=(89,0,0) tid=(463,0,0)
GPGPU-Sim uArch: Shader 0 finished CTA #0 (12401,0), 2 CTAs running
GPGPU-Sim uArch: core:  0, cta: 0 initialized @(12402,0)
GPGPU-Sim uArch: Shader 11 finished CTA #0 (12415,0), 2 CTAs running
GPGPU-Sim uArch: core: 11, cta: 0 initialized @(12416,0)
GPGPU-Sim uArch: Shader 3 finished CTA #0 (12465,0), 2 CTAs running
GPGPU-Sim uArch: core:  3, cta: 0 initialized @(12466,0)
GPGPU-Sim uArch: Shader 8 finished CTA #0 (12466,0), 2 CTAs running
GPGPU-Sim uArch: core:  8, cta: 0 initialized @(12467,0)
GPGPU-Sim uArch: Shader 13 finished CTA #0 (12467,0), 2 CTAs running
GPGPU-Sim uArch: core: 13, cta: 0 initialized @(12468,0)
GPGPU-Sim uArch: Shader 5 finished CTA #0 (12488,0), 2 CTAs running
GPGPU-Sim uArch: core:  5, cta: 0 initialized @(12489,0)
GPGPU-Sim uArch: Shader 9 finished CTA #0 (12497,0), 2 CTAs running
GPGPU-Sim uArch: core:  9, cta: 0 initialized @(12498,0)
GPGPU-Sim uArch: cycles simulated: 12500  inst.: 8003600 (ipc=640.3) sim_rate=1000450 (inst/sec) elapsed = 0:0:00:08 / Mon Jan 28 00:56:38 2019
GPGPU-Sim PTX: 8200000 instructions simulated : ctaid=(66,0,0) tid=(218,0,0)
GPGPU-Sim uArch: Shader 10 finished CTA #0 (12547,0), 2 CTAs running
GPGPU-Sim uArch: core: 10, cta: 0 initialized @(12548,0)
GPGPU-Sim PTX: 8300000 instructions simulated : ctaid=(70,0,0) tid=(486,0,0)
GPGPU-Sim uArch: Shader 7 finished CTA #0 (12712,0), 2 CTAs running
GPGPU-Sim uArch: core:  7, cta: 0 initialized @(12713,0)
GPGPU-Sim PTX: 8400000 instructions simulated : ctaid=(71,0,0) tid=(173,0,0)
GPGPU-Sim uArch: Shader 6 finished CTA #0 (12813,0), 2 CTAs running
GPGPU-Sim uArch: core:  6, cta: 0 initialized @(12814,0)
GPGPU-Sim uArch: Shader 14 finished CTA #0 (12880,0), 2 CTAs running
GPGPU-Sim uArch: core: 14, cta: 0 initialized @(12881,0)
GPGPU-Sim PTX: 8500000 instructions simulated : ctaid=(76,0,0) tid=(490,0,0)
GPGPU-Sim uArch: Shader 4 finished CTA #1 (13006,0), 2 CTAs running
GPGPU-Sim uArch: core:  4, cta: 1 initialized @(13007,0)
GPGPU-Sim PTX: 8600000 instructions simulated : ctaid=(94,0,0) tid=(21,0,0)
GPGPU-Sim uArch: Shader 9 finished CTA #1 (13099,0), 2 CTAs running
GPGPU-Sim uArch: core:  9, cta: 1 initialized @(13100,0)
GPGPU-Sim uArch: Shader 12 finished CTA #1 (13142,0), 2 CTAs running
GPGPU-Sim uArch: core: 12, cta: 1 initialized @(13143,0)
GPGPU-Sim uArch: Shader 11 finished CTA #1 (13162,0), 2 CTAs running
GPGPU-Sim uArch: core: 11, cta: 1 initialized @(13163,0)
GPGPU-Sim uArch: Shader 13 finished CTA #1 (13173,0), 2 CTAs running
GPGPU-Sim uArch: core: 13, cta: 1 initialized @(13174,0)
GPGPU-Sim PTX: 8700000 instructions simulated : ctaid=(80,0,0) tid=(106,0,0)
GPGPU-Sim uArch: Shader 5 finished CTA #1 (13186,0), 2 CTAs running
GPGPU-Sim uArch: core:  5, cta: 1 initialized @(13187,0)
GPGPU-Sim uArch: Shader 10 finished CTA #1 (13191,0), 2 CTAs running
GPGPU-Sim uArch: core: 10, cta: 1 initialized @(13192,0)
GPGPU-Sim uArch: Shader 3 finished CTA #1 (13198,0), 2 CTAs running
GPGPU-Sim uArch: core:  3, cta: 1 initialized @(13199,0)
GPGPU-Sim uArch: Shader 0 finished CTA #1 (13207,0), 2 CTAs running
GPGPU-Sim uArch: core:  0, cta: 1 initialized @(13208,0)
GPGPU-Sim uArch: Shader 7 finished CTA #1 (13208,0), 2 CTAs running
GPGPU-Sim uArch: Shader 8 finished CTA #1 (13208,0), 2 CTAs running
GPGPU-Sim uArch: core:  7, cta: 1 initialized @(13209,0)
GPGPU-Sim uArch: core:  8, cta: 1 initialized @(13209,0)
GPGPU-Sim uArch: Shader 2 finished CTA #0 (13273,0), 2 CTAs running
GPGPU-Sim uArch: core:  2, cta: 0 initialized @(13274,0)
GPGPU-Sim uArch: Shader 1 finished CTA #1 (13290,0), 2 CTAs running
GPGPU-Sim uArch: core:  1, cta: 1 initialized @(13291,0)
GPGPU-Sim uArch: Shader 6 finished CTA #1 (13297,0), 2 CTAs running
GPGPU-Sim uArch: core:  6, cta: 1 initialized @(13298,0)
GPGPU-Sim PTX: 8800000 instructions simulated : ctaid=(77,0,0) tid=(33,0,0)
GPGPU-Sim uArch: Shader 14 finished CTA #1 (13394,0), 2 CTAs running
GPGPU-Sim uArch: core: 14, cta: 1 initialized @(13395,0)
GPGPU-Sim PTX: 8900000 instructions simulated : ctaid=(95,0,0) tid=(133,0,0)
GPGPU-Sim uArch: cycles simulated: 13500  inst.: 8771072 (ipc=649.7) sim_rate=974563 (inst/sec) elapsed = 0:0:00:09 / Mon Jan 28 00:56:39 2019
GPGPU-Sim PTX: 9000000 instructions simulated : ctaid=(115,0,0) tid=(295,0,0)
GPGPU-Sim PTX: 9100000 instructions simulated : ctaid=(84,0,0) tid=(89,0,0)
GPGPU-Sim PTX: 9200000 instructions simulated : ctaid=(81,0,0) tid=(401,0,0)
GPGPU-Sim uArch: Shader 9 finished CTA #2 (13905,0), 2 CTAs running
GPGPU-Sim uArch: core:  9, cta: 2 initialized @(13906,0)
GPGPU-Sim PTX: 9300000 instructions simulated : ctaid=(98,0,0) tid=(362,0,0)
GPGPU-Sim uArch: Shader 7 finished CTA #2 (13923,0), 2 CTAs running
GPGPU-Sim uArch: core:  7, cta: 2 initialized @(13924,0)
GPGPU-Sim uArch: Shader 6 finished CTA #2 (14024,0), 2 CTAs running
GPGPU-Sim uArch: core:  6, cta: 2 initialized @(14025,0)
GPGPU-Sim PTX: 9400000 instructions simulated : ctaid=(98,0,0) tid=(207,0,0)
GPGPU-Sim uArch: Shader 12 finished CTA #2 (14032,0), 2 CTAs running
GPGPU-Sim uArch: core: 12, cta: 2 initialized @(14033,0)
GPGPU-Sim uArch: Shader 0 finished CTA #2 (14035,0), 2 CTAs running
GPGPU-Sim uArch: core:  0, cta: 2 initialized @(14036,0)
GPGPU-Sim uArch: Shader 2 finished CTA #2 (14067,0), 2 CTAs running
GPGPU-Sim uArch: core:  2, cta: 2 initialized @(14068,0)
GPGPU-Sim uArch: Shader 3 finished CTA #2 (14071,0), 2 CTAs running
GPGPU-Sim uArch: core:  3, cta: 2 initialized @(14072,0)
GPGPU-Sim uArch: Shader 5 finished CTA #2 (14082,0), 2 CTAs running
GPGPU-Sim uArch: core:  5, cta: 2 initialized @(14083,0)
GPGPU-Sim uArch: Shader 8 finished CTA #2 (14086,0), 2 CTAs running
GPGPU-Sim uArch: core:  8, cta: 2 initialized @(14087,0)
GPGPU-Sim uArch: Shader 14 finished CTA #2 (14099,0), 2 CTAs running
GPGPU-Sim uArch: core: 14, cta: 2 initialized @(14100,0)
GPGPU-Sim PTX: 9500000 instructions simulated : ctaid=(126,0,0) tid=(89,0,0)
GPGPU-Sim uArch: Shader 11 finished CTA #2 (14210,0), 2 CTAs running
GPGPU-Sim uArch: core: 11, cta: 2 initialized @(14211,0)
GPGPU-Sim PTX: 9600000 instructions simulated : ctaid=(93,0,0) tid=(147,0,0)
GPGPU-Sim uArch: Shader 10 finished CTA #2 (14273,0), 2 CTAs running
GPGPU-Sim uArch: core: 10, cta: 2 initialized @(14274,0)
GPGPU-Sim uArch: Shader 1 finished CTA #2 (14276,0), 2 CTAs running
GPGPU-Sim uArch: core:  1, cta: 2 initialized @(14277,0)
GPGPU-Sim uArch: Shader 4 finished CTA #2 (14291,0), 2 CTAs running
GPGPU-Sim uArch: core:  4, cta: 2 initialized @(14292,0)
GPGPU-Sim PTX: 9700000 instructions simulated : ctaid=(128,0,0) tid=(371,0,0)
GPGPU-Sim uArch: Shader 13 finished CTA #2 (14414,0), 2 CTAs running
GPGPU-Sim uArch: core: 13, cta: 2 initialized @(14415,0)
GPGPU-Sim PTX: 9800000 instructions simulated : ctaid=(104,0,0) tid=(243,0,0)
GPGPU-Sim uArch: cycles simulated: 14500  inst.: 9585100 (ipc=661.0) sim_rate=958510 (inst/sec) elapsed = 0:0:00:10 / Mon Jan 28 00:56:40 2019
GPGPU-Sim PTX: 9900000 instructions simulated : ctaid=(95,0,0) tid=(211,0,0)
GPGPU-Sim PTX: 10000000 instructions simulated : ctaid=(104,0,0) tid=(307,0,0)
GPGPU-Sim PTX: 10100000 instructions simulated : ctaid=(101,0,0) tid=(371,0,0)
GPGPU-Sim PTX: 10200000 instructions simulated : ctaid=(128,0,0) tid=(307,0,0)
GPGPU-Sim PTX: 10300000 instructions simulated : ctaid=(97,0,0) tid=(179,0,0)
GPGPU-Sim PTX: 10400000 instructions simulated : ctaid=(104,0,0) tid=(19,0,0)
GPGPU-Sim PTX: 10500000 instructions simulated : ctaid=(126,0,0) tid=(307,0,0)
GPGPU-Sim PTX: 10600000 instructions simulated : ctaid=(103,0,0) tid=(467,0,0)
GPGPU-Sim PTX: 10700000 instructions simulated : ctaid=(102,0,0) tid=(19,0,0)
GPGPU-Sim PTX: 10800000 instructions simulated : ctaid=(119,0,0) tid=(211,0,0)
GPGPU-Sim PTX: 10900000 instructions simulated : ctaid=(109,0,0) tid=(91,0,0)
GPGPU-Sim PTX: 11000000 instructions simulated : ctaid=(93,0,0) tid=(451,0,0)
GPGPU-Sim uArch: cycles simulated: 16000  inst.: 10795332 (ipc=674.7) sim_rate=981393 (inst/sec) elapsed = 0:0:00:11 / Mon Jan 28 00:56:41 2019
GPGPU-Sim PTX: 11100000 instructions simulated : ctaid=(122,0,0) tid=(55,0,0)
GPGPU-Sim PTX: 11200000 instructions simulated : ctaid=(108,0,0) tid=(299,0,0)
GPGPU-Sim PTX: 11300000 instructions simulated : ctaid=(130,0,0) tid=(511,0,0)
GPGPU-Sim PTX: 11400000 instructions simulated : ctaid=(90,0,0) tid=(403,0,0)
GPGPU-Sim PTX: 11500000 instructions simulated : ctaid=(93,0,0) tid=(110,0,0)
GPGPU-Sim PTX: 11600000 instructions simulated : ctaid=(102,0,0) tid=(343,0,0)
GPGPU-Sim PTX: 11700000 instructions simulated : ctaid=(119,0,0) tid=(132,0,0)
GPGPU-Sim uArch: Shader 1 finished CTA #0 (16962,0), 2 CTAs running
GPGPU-Sim uArch: core:  1, cta: 0 initialized @(16963,0)
GPGPU-Sim PTX: 11800000 instructions simulated : ctaid=(116,0,0) tid=(489,0,0)
GPGPU-Sim uArch: cycles simulated: 17000  inst.: 11555642 (ipc=679.7) sim_rate=962970 (inst/sec) elapsed = 0:0:00:12 / Mon Jan 28 00:56:42 2019
GPGPU-Sim uArch: Shader 12 finished CTA #0 (17028,0), 2 CTAs running
GPGPU-Sim uArch: core: 12, cta: 0 initialized @(17029,0)
GPGPU-Sim uArch: Shader 2 finished CTA #1 (17063,0), 2 CTAs running
GPGPU-Sim uArch: core:  2, cta: 1 initialized @(17064,0)
GPGPU-Sim PTX: 11900000 instructions simulated : ctaid=(109,0,0) tid=(215,0,0)
GPGPU-Sim PTX: 12000000 instructions simulated : ctaid=(127,0,0) tid=(1,0,0)
GPGPU-Sim uArch: Shader 0 finished CTA #0 (17310,0), 2 CTAs running
GPGPU-Sim uArch: Shader 9 finished CTA #0 (17310,0), 2 CTAs running
GPGPU-Sim uArch: core:  9, cta: 0 initialized @(17311,0)
GPGPU-Sim uArch: core:  0, cta: 0 initialized @(17311,0)
GPGPU-Sim PTX: 12100000 instructions simulated : ctaid=(126,0,0) tid=(325,0,0)
GPGPU-Sim uArch: Shader 13 finished CTA #0 (17461,0), 2 CTAs running
GPGPU-Sim uArch: core: 13, cta: 0 initialized @(17462,0)
GPGPU-Sim uArch: Shader 4 finished CTA #0 (17476,0), 2 CTAs running
GPGPU-Sim uArch: core:  4, cta: 0 initialized @(17477,0)
GPGPU-Sim PTX: 12200000 instructions simulated : ctaid=(132,0,0) tid=(84,0,0)
GPGPU-Sim uArch: Shader 8 finished CTA #0 (17510,0), 2 CTAs running
GPGPU-Sim uArch: core:  8, cta: 0 initialized @(17511,0)
GPGPU-Sim uArch: Shader 3 finished CTA #0 (17544,0), 2 CTAs running
GPGPU-Sim uArch: core:  3, cta: 0 initialized @(17545,0)
GPGPU-Sim uArch: Shader 7 finished CTA #0 (17549,0), 2 CTAs running
GPGPU-Sim uArch: core:  7, cta: 0 initialized @(17550,0)
GPGPU-Sim uArch: Shader 5 finished CTA #0 (17584,0), 2 CTAs running
GPGPU-Sim uArch: core:  5, cta: 0 initialized @(17585,0)
GPGPU-Sim uArch: Shader 11 finished CTA #0 (17602,0), 2 CTAs running
GPGPU-Sim uArch: core: 11, cta: 0 initialized @(17603,0)
GPGPU-Sim PTX: 12300000 instructions simulated : ctaid=(132,0,0) tid=(309,0,0)
GPGPU-Sim uArch: Shader 6 finished CTA #0 (17662,0), 2 CTAs running
GPGPU-Sim uArch: core:  6, cta: 0 initialized @(17663,0)
GPGPU-Sim uArch: Shader 10 finished CTA #0 (17663,0), 2 CTAs running
GPGPU-Sim uArch: core: 10, cta: 0 initialized @(17664,0)
GPGPU-Sim PTX: 12400000 instructions simulated : ctaid=(137,0,0) tid=(461,0,0)
GPGPU-Sim uArch: Shader 14 finished CTA #0 (17763,0), 2 CTAs running
GPGPU-Sim uArch: core: 14, cta: 0 initialized @(17764,0)
GPGPU-Sim PTX: 12500000 instructions simulated : ctaid=(109,0,0) tid=(165,0,0)
GPGPU-Sim PTX: 12600000 instructions simulated : ctaid=(111,0,0) tid=(101,0,0)
GPGPU-Sim PTX: 12700000 instructions simulated : ctaid=(117,0,0) tid=(208,0,0)
GPGPU-Sim PTX: 12800000 instructions simulated : ctaid=(119,0,0) tid=(466,0,0)
GPGPU-Sim PTX: 12900000 instructions simulated : ctaid=(125,0,0) tid=(27,0,0)
GPGPU-Sim uArch: cycles simulated: 18500  inst.: 12700669 (ipc=686.5) sim_rate=976974 (inst/sec) elapsed = 0:0:00:13 / Mon Jan 28 00:56:43 2019
GPGPU-Sim uArch: Shader 3 finished CTA #1 (18513,0), 2 CTAs running
GPGPU-Sim uArch: core:  3, cta: 1 initialized @(18514,0)
GPGPU-Sim PTX: 13000000 instructions simulated : ctaid=(126,0,0) tid=(391,0,0)
GPGPU-Sim uArch: Shader 9 finished CTA #1 (18593,0), 2 CTAs running
GPGPU-Sim uArch: core:  9, cta: 1 initialized @(18594,0)
GPGPU-Sim uArch: Shader 10 finished CTA #1 (18610,0), 2 CTAs running
GPGPU-Sim uArch: core: 10, cta: 1 initialized @(18611,0)
GPGPU-Sim uArch: Shader 6 finished CTA #1 (18646,0), 2 CTAs running
GPGPU-Sim uArch: core:  6, cta: 1 initialized @(18647,0)
GPGPU-Sim PTX: 13100000 instructions simulated : ctaid=(130,0,0) tid=(43,0,0)
GPGPU-Sim uArch: Shader 11 finished CTA #1 (18665,0), 2 CTAs running
GPGPU-Sim uArch: core: 11, cta: 1 initialized @(18666,0)
GPGPU-Sim uArch: Shader 7 finished CTA #1 (18686,0), 2 CTAs running
GPGPU-Sim uArch: core:  7, cta: 1 initialized @(18687,0)
GPGPU-Sim uArch: Shader 5 finished CTA #1 (18689,0), 2 CTAs running
GPGPU-Sim uArch: core:  5, cta: 1 initialized @(18690,0)
GPGPU-Sim uArch: Shader 4 finished CTA #1 (18704,0), 2 CTAs running
GPGPU-Sim uArch: core:  4, cta: 1 initialized @(18705,0)
GPGPU-Sim uArch: Shader 0 finished CTA #1 (18722,0), 2 CTAs running
GPGPU-Sim uArch: Shader 8 finished CTA #1 (18722,0), 2 CTAs running
GPGPU-Sim uArch: core:  8, cta: 1 initialized @(18723,0)
GPGPU-Sim uArch: core:  0, cta: 1 initialized @(18723,0)
GPGPU-Sim uArch: Shader 14 finished CTA #1 (18772,0), 2 CTAs running
GPGPU-Sim uArch: core: 14, cta: 1 initialized @(18773,0)
GPGPU-Sim PTX: 13200000 instructions simulated : ctaid=(124,0,0) tid=(375,0,0)
GPGPU-Sim uArch: Shader 12 finished CTA #1 (18775,0), 2 CTAs running
GPGPU-Sim uArch: core: 12, cta: 1 initialized @(18776,0)
GPGPU-Sim uArch: Shader 13 finished CTA #1 (18804,0), 2 CTAs running
GPGPU-Sim uArch: core: 13, cta: 1 initialized @(18805,0)
GPGPU-Sim uArch: Shader 2 finished CTA #0 (18874,0), 2 CTAs running
GPGPU-Sim uArch: core:  2, cta: 0 initialized @(18875,0)
GPGPU-Sim PTX: 13300000 instructions simulated : ctaid=(125,0,0) tid=(263,0,0)
GPGPU-Sim uArch: Shader 1 finished CTA #1 (18916,0), 2 CTAs running
GPGPU-Sim uArch: core:  1, cta: 1 initialized @(18917,0)
GPGPU-Sim uArch: cycles simulated: 19000  inst.: 13097240 (ipc=689.3) sim_rate=935517 (inst/sec) elapsed = 0:0:00:14 / Mon Jan 28 00:56:44 2019
GPGPU-Sim PTX: 13400000 instructions simulated : ctaid=(137,0,0) tid=(15,0,0)
GPGPU-Sim PTX: 13500000 instructions simulated : ctaid=(141,0,0) tid=(271,0,0)
GPGPU-Sim PTX: 13600000 instructions simulated : ctaid=(160,0,0) tid=(341,0,0)
GPGPU-Sim PTX: 13700000 instructions simulated : ctaid=(152,0,0) tid=(387,0,0)
GPGPU-Sim PTX: 13800000 instructions simulated : ctaid=(121,0,0) tid=(37,0,0)
GPGPU-Sim PTX: 13900000 instructions simulated : ctaid=(143,0,0) tid=(493,0,0)
GPGPU-Sim PTX: 14000000 instructions simulated : ctaid=(137,0,0) tid=(193,0,0)
GPGPU-Sim PTX: 14100000 instructions simulated : ctaid=(125,0,0) tid=(260,0,0)
GPGPU-Sim uArch: Shader 9 finished CTA #2 (19950,0), 2 CTAs running
GPGPU-Sim uArch: core:  9, cta: 2 initialized @(19951,0)
GPGPU-Sim uArch: Shader 5 finished CTA #2 (19960,0), 2 CTAs running
GPGPU-Sim uArch: core:  5, cta: 2 initialized @(19961,0)
GPGPU-Sim PTX: 14200000 instructions simulated : ctaid=(139,0,0) tid=(219,0,0)
GPGPU-Sim uArch: Shader 7 finished CTA #2 (20026,0), 2 CTAs running
GPGPU-Sim uArch: core:  7, cta: 2 initialized @(20027,0)
GPGPU-Sim uArch: Shader 3 finished CTA #2 (20042,0), 2 CTAs running
GPGPU-Sim uArch: core:  3, cta: 2 initialized @(20043,0)
GPGPU-Sim uArch: Shader 8 finished CTA #2 (20066,0), 2 CTAs running
GPGPU-Sim uArch: core:  8, cta: 2 initialized @(20067,0)
GPGPU-Sim uArch: Shader 0 finished CTA #2 (20073,0), 2 CTAs running
GPGPU-Sim uArch: core:  0, cta: 2 initialized @(20074,0)
GPGPU-Sim uArch: Shader 11 finished CTA #2 (20084,0), 2 CTAs running
GPGPU-Sim uArch: core: 11, cta: 2 initialized @(20085,0)
GPGPU-Sim uArch: Shader 10 finished CTA #2 (20111,0), 2 CTAs running
GPGPU-Sim uArch: core: 10, cta: 2 initialized @(20112,0)
GPGPU-Sim PTX: 14300000 instructions simulated : ctaid=(164,0,0) tid=(398,0,0)
GPGPU-Sim uArch: Shader 6 finished CTA #2 (20144,0), 2 CTAs running
GPGPU-Sim uArch: core:  6, cta: 2 initialized @(20145,0)
GPGPU-Sim uArch: Shader 1 finished CTA #2 (20153,0), 2 CTAs running
GPGPU-Sim uArch: core:  1, cta: 2 initialized @(20154,0)
GPGPU-Sim uArch: Shader 4 finished CTA #2 (20155,0), 2 CTAs running
GPGPU-Sim uArch: core:  4, cta: 2 initialized @(20156,0)
GPGPU-Sim uArch: Shader 12 finished CTA #2 (20164,0), 2 CTAs running
GPGPU-Sim uArch: core: 12, cta: 2 initialized @(20165,0)
GPGPU-Sim uArch: Shader 2 finished CTA #2 (20169,0), 2 CTAs running
GPGPU-Sim uArch: core:  2, cta: 2 initialized @(20170,0)
GPGPU-Sim PTX: 14400000 instructions simulated : ctaid=(172,0,0) tid=(109,0,0)
GPGPU-Sim uArch: Shader 13 finished CTA #2 (20280,0), 2 CTAs running
GPGPU-Sim uArch: core: 13, cta: 2 initialized @(20281,0)
GPGPU-Sim uArch: Shader 14 finished CTA #2 (20284,0), 2 CTAs running
GPGPU-Sim uArch: core: 14, cta: 2 initialized @(20285,0)
GPGPU-Sim PTX: 14500000 instructions simulated : ctaid=(154,0,0) tid=(493,0,0)
GPGPU-Sim PTX: 14600000 instructions simulated : ctaid=(137,0,0) tid=(45,0,0)
GPGPU-Sim uArch: cycles simulated: 20500  inst.: 14293970 (ipc=697.3) sim_rate=952931 (inst/sec) elapsed = 0:0:00:15 / Mon Jan 28 00:56:45 2019
GPGPU-Sim PTX: 14700000 instructions simulated : ctaid=(137,0,0) tid=(109,0,0)
GPGPU-Sim PTX: 14800000 instructions simulated : ctaid=(145,0,0) tid=(13,0,0)
GPGPU-Sim PTX: 14900000 instructions simulated : ctaid=(152,0,0) tid=(157,0,0)
GPGPU-Sim PTX: 15000000 instructions simulated : ctaid=(173,0,0) tid=(357,0,0)
GPGPU-Sim PTX: 15100000 instructions simulated : ctaid=(144,0,0) tid=(325,0,0)
GPGPU-Sim PTX: 15200000 instructions simulated : ctaid=(179,0,0) tid=(109,0,0)
GPGPU-Sim PTX: 15300000 instructions simulated : ctaid=(164,0,0) tid=(33,0,0)
GPGPU-Sim PTX: 15400000 instructions simulated : ctaid=(146,0,0) tid=(249,0,0)
GPGPU-Sim uArch: cycles simulated: 21500  inst.: 15091242 (ipc=701.9) sim_rate=943202 (inst/sec) elapsed = 0:0:00:16 / Mon Jan 28 00:56:46 2019
GPGPU-Sim PTX: 15500000 instructions simulated : ctaid=(159,0,0) tid=(225,0,0)
GPGPU-Sim PTX: 15600000 instructions simulated : ctaid=(159,0,0) tid=(69,0,0)
GPGPU-Sim PTX: 15700000 instructions simulated : ctaid=(158,0,0) tid=(265,0,0)
GPGPU-Sim PTX: 15800000 instructions simulated : ctaid=(144,0,0) tid=(170,0,0)
GPGPU-Sim PTX: 15900000 instructions simulated : ctaid=(148,0,0) tid=(265,0,0)
GPGPU-Sim uArch: Shader 2 finished CTA #1 (22159,0), 2 CTAs running
GPGPU-Sim uArch: core:  2, cta: 1 initialized @(22160,0)
GPGPU-Sim uArch: Shader 12 finished CTA #0 (22212,0), 2 CTAs running
GPGPU-Sim uArch: core: 12, cta: 0 initialized @(22213,0)
GPGPU-Sim PTX: 16000000 instructions simulated : ctaid=(158,0,0) tid=(435,0,0)
GPGPU-Sim PTX: 16100000 instructions simulated : ctaid=(172,0,0) tid=(448,0,0)
GPGPU-Sim uArch: Shader 8 finished CTA #0 (22457,0), 2 CTAs running
GPGPU-Sim uArch: core:  8, cta: 0 initialized @(22458,0)
GPGPU-Sim PTX: 16200000 instructions simulated : ctaid=(140,0,0) tid=(186,0,0)
GPGPU-Sim uArch: Shader 0 finished CTA #0 (22494,0), 2 CTAs running
GPGPU-Sim uArch: core:  0, cta: 0 initialized @(22495,0)
GPGPU-Sim uArch: cycles simulated: 22500  inst.: 15870353 (ipc=705.3) sim_rate=933550 (inst/sec) elapsed = 0:0:00:17 / Mon Jan 28 00:56:47 2019
GPGPU-Sim uArch: Shader 4 finished CTA #0 (22534,0), 2 CTAs running
GPGPU-Sim uArch: core:  4, cta: 0 initialized @(22535,0)
GPGPU-Sim uArch: Shader 1 finished CTA #0 (22563,0), 2 CTAs running
GPGPU-Sim uArch: core:  1, cta: 0 initialized @(22564,0)
GPGPU-Sim uArch: Shader 5 finished CTA #0 (22582,0), 2 CTAs running
GPGPU-Sim uArch: core:  5, cta: 0 initialized @(22583,0)
GPGPU-Sim PTX: 16300000 instructions simulated : ctaid=(167,0,0) tid=(404,0,0)
GPGPU-Sim uArch: Shader 9 finished CTA #0 (22638,0), 2 CTAs running
GPGPU-Sim uArch: core:  9, cta: 0 initialized @(22639,0)
GPGPU-Sim PTX: 16400000 instructions simulated : ctaid=(164,0,0) tid=(235,0,0)
GPGPU-Sim uArch: Shader 3 finished CTA #0 (22742,0), 2 CTAs running
GPGPU-Sim uArch: core:  3, cta: 0 initialized @(22743,0)
GPGPU-Sim uArch: Shader 14 finished CTA #0 (22748,0), 2 CTAs running
GPGPU-Sim uArch: core: 14, cta: 0 initialized @(22749,0)
GPGPU-Sim uArch: Shader 7 finished CTA #0 (22749,0), 2 CTAs running
GPGPU-Sim uArch: core:  7, cta: 0 initialized @(22750,0)
GPGPU-Sim PTX: 16500000 instructions simulated : ctaid=(175,0,0) tid=(275,0,0)
GPGPU-Sim uArch: Shader 6 finished CTA #0 (22915,0), 2 CTAs running
GPGPU-Sim uArch: core:  6, cta: 0 initialized @(22916,0)
GPGPU-Sim uArch: Shader 13 finished CTA #0 (22935,0), 2 CTAs running
GPGPU-Sim uArch: core: 13, cta: 0 initialized @(22936,0)
GPGPU-Sim uArch: Shader 10 finished CTA #0 (22942,0), 2 CTAs running
GPGPU-Sim uArch: core: 10, cta: 0 initialized @(22943,0)
GPGPU-Sim uArch: Shader 11 finished CTA #0 (22982,0), 2 CTAs running
GPGPU-Sim uArch: core: 11, cta: 0 initialized @(22983,0)
GPGPU-Sim PTX: 16600000 instructions simulated : ctaid=(181,0,0) tid=(123,0,0)
GPGPU-Sim PTX: 16700000 instructions simulated : ctaid=(188,0,0) tid=(167,0,0)
GPGPU-Sim PTX: 16800000 instructions simulated : ctaid=(167,0,0) tid=(71,0,0)
GPGPU-Sim PTX: 16900000 instructions simulated : ctaid=(175,0,0) tid=(415,0,0)
GPGPU-Sim PTX: 17000000 instructions simulated : ctaid=(186,0,0) tid=(223,0,0)
GPGPU-Sim uArch: cycles simulated: 23500  inst.: 16639740 (ipc=708.1) sim_rate=924430 (inst/sec) elapsed = 0:0:00:18 / Mon Jan 28 00:56:48 2019
GPGPU-Sim PTX: 17100000 instructions simulated : ctaid=(156,0,0) tid=(221,0,0)
GPGPU-Sim PTX: 17200000 instructions simulated : ctaid=(180,0,0) tid=(110,0,0)
GPGPU-Sim PTX: 17300000 instructions simulated : ctaid=(154,0,0) tid=(74,0,0)
GPGPU-Sim PTX: 17400000 instructions simulated : ctaid=(190,0,0) tid=(83,0,0)
GPGPU-Sim uArch: Shader 7 finished CTA #1 (24121,0), 2 CTAs running
GPGPU-Sim uArch: core:  7, cta: 1 initialized @(24122,0)
GPGPU-Sim uArch: Shader 3 finished CTA #1 (24125,0), 2 CTAs running
GPGPU-Sim uArch: core:  3, cta: 1 initialized @(24126,0)
GPGPU-Sim PTX: 17500000 instructions simulated : ctaid=(183,0,0) tid=(482,0,0)
GPGPU-Sim uArch: Shader 9 finished CTA #1 (24148,0), 2 CTAs running
GPGPU-Sim uArch: core:  9, cta: 1 initialized @(24149,0)
GPGPU-Sim uArch: Shader 4 finished CTA #1 (24169,0), 2 CTAs running
GPGPU-Sim uArch: core:  4, cta: 1 initialized @(24170,0)
GPGPU-Sim uArch: Shader 0 finished CTA #1 (24218,0), 2 CTAs running
GPGPU-Sim uArch: core:  0, cta: 1 initialized @(24219,0)
GPGPU-Sim PTX: 17600000 instructions simulated : ctaid=(179,0,0) tid=(48,0,0)
GPGPU-Sim uArch: Shader 5 finished CTA #1 (24304,0), 2 CTAs running
GPGPU-Sim uArch: core:  5, cta: 1 initialized @(24305,0)
GPGPU-Sim uArch: Shader 8 finished CTA #1 (24306,0), 2 CTAs running
GPGPU-Sim uArch: core:  8, cta: 1 initialized @(24307,0)
GPGPU-Sim uArch: Shader 10 finished CTA #1 (24309,0), 2 CTAs running
GPGPU-Sim uArch: core: 10, cta: 1 initialized @(24310,0)
GPGPU-Sim PTX: 17700000 instructions simulated : ctaid=(173,0,0) tid=(201,0,0)
GPGPU-Sim uArch: Shader 1 finished CTA #1 (24376,0), 2 CTAs running
GPGPU-Sim uArch: core:  1, cta: 1 initialized @(24377,0)
GPGPU-Sim uArch: Shader 6 finished CTA #1 (24404,0), 2 CTAs running
GPGPU-Sim uArch: core:  6, cta: 1 initialized @(24405,0)
GPGPU-Sim uArch: Shader 13 finished CTA #1 (24407,0), 2 CTAs running
GPGPU-Sim uArch: core: 13, cta: 1 initialized @(24408,0)
GPGPU-Sim uArch: Shader 14 finished CTA #1 (24419,0), 2 CTAs running
GPGPU-Sim uArch: core: 14, cta: 1 initialized @(24420,0)
GPGPU-Sim uArch: Shader 11 finished CTA #1 (24462,0), 2 CTAs running
GPGPU-Sim uArch: core: 11, cta: 1 initialized @(24463,0)
GPGPU-Sim uArch: Shader 12 finished CTA #1 (24491,0), 2 CTAs running
GPGPU-Sim uArch: core: 12, cta: 1 initialized @(24492,0)
GPGPU-Sim PTX: 17800000 instructions simulated : ctaid=(171,0,0) tid=(193,0,0)
GPGPU-Sim uArch: Shader 2 finished CTA #0 (24499,0), 2 CTAs running
GPGPU-Sim uArch: core:  2, cta: 0 initialized @(24500,0)
GPGPU-Sim uArch: cycles simulated: 24500  inst.: 17419550 (ipc=711.0) sim_rate=916818 (inst/sec) elapsed = 0:0:00:19 / Mon Jan 28 00:56:49 2019
GPGPU-Sim PTX: 17900000 instructions simulated : ctaid=(191,0,0) tid=(357,0,0)
GPGPU-Sim PTX: 18000000 instructions simulated : ctaid=(165,0,0) tid=(297,0,0)
GPGPU-Sim PTX: 18100000 instructions simulated : ctaid=(207,0,0) tid=(249,0,0)
GPGPU-Sim PTX: 18200000 instructions simulated : ctaid=(182,0,0) tid=(221,0,0)
GPGPU-Sim PTX: 18300000 instructions simulated : ctaid=(173,0,0) tid=(378,0,0)
GPGPU-Sim PTX: 18400000 instructions simulated : ctaid=(171,0,0) tid=(348,0,0)
GPGPU-Sim PTX: 18500000 instructions simulated : ctaid=(175,0,0) tid=(463,0,0)
GPGPU-Sim PTX: 18600000 instructions simulated : ctaid=(204,0,0) tid=(259,0,0)
GPGPU-Sim uArch: Shader 9 finished CTA #2 (25507,0), 2 CTAs running
GPGPU-Sim uArch: core:  9, cta: 2 initialized @(25508,0)
GPGPU-Sim PTX: 18700000 instructions simulated : ctaid=(203,0,0) tid=(180,0,0)
GPGPU-Sim uArch: Shader 1 finished CTA #2 (25620,0), 2 CTAs running
GPGPU-Sim uArch: core:  1, cta: 2 initialized @(25621,0)
GPGPU-Sim uArch: Shader 0 finished CTA #2 (25638,0), 2 CTAs running
GPGPU-Sim uArch: core:  0, cta: 2 initialized @(25639,0)
GPGPU-Sim uArch: Shader 12 finished CTA #2 (25658,0), 2 CTAs running
GPGPU-Sim uArch: core: 12, cta: 2 initialized @(25659,0)
GPGPU-Sim uArch: Shader 3 finished CTA #2 (25670,0), 2 CTAs running
GPGPU-Sim uArch: core:  3, cta: 2 initialized @(25671,0)
GPGPU-Sim uArch: Shader 11 finished CTA #2 (25726,0), 2 CTAs running
GPGPU-Sim uArch: core: 11, cta: 2 initialized @(25727,0)
GPGPU-Sim PTX: 18800000 instructions simulated : ctaid=(180,0,0) tid=(0,0,0)
GPGPU-Sim uArch: Shader 4 finished CTA #2 (25772,0), 2 CTAs running
GPGPU-Sim uArch: core:  4, cta: 2 initialized @(25773,0)
GPGPU-Sim uArch: Shader 5 finished CTA #2 (25777,0), 2 CTAs running
GPGPU-Sim uArch: core:  5, cta: 2 initialized @(25778,0)
GPGPU-Sim uArch: Shader 10 finished CTA #2 (25795,0), 2 CTAs running
GPGPU-Sim uArch: core: 10, cta: 2 initialized @(25796,0)
GPGPU-Sim uArch: Shader 13 finished CTA #2 (25796,0), 2 CTAs running
GPGPU-Sim uArch: core: 13, cta: 2 initialized @(25797,0)
GPGPU-Sim uArch: Shader 6 finished CTA #2 (25807,0), 2 CTAs running
GPGPU-Sim uArch: core:  6, cta: 2 initialized @(25808,0)
GPGPU-Sim PTX: 18900000 instructions simulated : ctaid=(202,0,0) tid=(173,0,0)
GPGPU-Sim uArch: Shader 2 finished CTA #2 (25875,0), 2 CTAs running
GPGPU-Sim uArch: core:  2, cta: 2 initialized @(25876,0)
GPGPU-Sim uArch: Shader 7 finished CTA #2 (25963,0), 2 CTAs running
GPGPU-Sim uArch: core:  7, cta: 2 initialized @(25964,0)
GPGPU-Sim PTX: 19000000 instructions simulated : ctaid=(202,0,0) tid=(140,0,0)
GPGPU-Sim uArch: Shader 8 finished CTA #2 (25987,0), 2 CTAs running
GPGPU-Sim uArch: core:  8, cta: 2 initialized @(25988,0)
GPGPU-Sim uArch: cycles simulated: 26000  inst.: 18606772 (ipc=715.6) sim_rate=930338 (inst/sec) elapsed = 0:0:00:20 / Mon Jan 28 00:56:50 2019
GPGPU-Sim PTX: 19100000 instructions simulated : ctaid=(185,0,0) tid=(151,0,0)
GPGPU-Sim uArch: Shader 14 finished CTA #2 (26217,0), 2 CTAs running
GPGPU-Sim uArch: core: 14, cta: 2 initialized @(26218,0)
GPGPU-Sim PTX: 19200000 instructions simulated : ctaid=(200,0,0) tid=(343,0,0)
GPGPU-Sim PTX: 19300000 instructions simulated : ctaid=(183,0,0) tid=(471,0,0)
GPGPU-Sim PTX: 19400000 instructions simulated : ctaid=(190,0,0) tid=(291,0,0)
GPGPU-Sim PTX: 19500000 instructions simulated : ctaid=(212,0,0) tid=(255,0,0)
GPGPU-Sim PTX: 19600000 instructions simulated : ctaid=(207,0,0) tid=(53,0,0)
GPGPU-Sim PTX: 19700000 instructions simulated : ctaid=(203,0,0) tid=(71,0,0)
GPGPU-Sim PTX: 19800000 instructions simulated : ctaid=(208,0,0) tid=(205,0,0)
GPGPU-Sim uArch: cycles simulated: 27000  inst.: 19402625 (ipc=718.6) sim_rate=923934 (inst/sec) elapsed = 0:0:00:21 / Mon Jan 28 00:56:51 2019
GPGPU-Sim PTX: 19900000 instructions simulated : ctaid=(203,0,0) tid=(93,0,0)
GPGPU-Sim PTX: 20000000 instructions simulated : ctaid=(201,0,0) tid=(332,0,0)
GPGPU-Sim PTX: 20100000 instructions simulated : ctaid=(200,0,0) tid=(87,0,0)
GPGPU-Sim uArch: Shader 2 finished CTA #1 (27423,0), 2 CTAs running
GPGPU-Sim uArch: core:  2, cta: 1 initialized @(27424,0)
GPGPU-Sim PTX: 20200000 instructions simulated : ctaid=(199,0,0) tid=(234,0,0)
GPGPU-Sim PTX: 20300000 instructions simulated : ctaid=(192,0,0) tid=(139,0,0)
GPGPU-Sim PTX: 20400000 instructions simulated : ctaid=(217,0,0) tid=(302,0,0)
GPGPU-Sim uArch: Shader 12 finished CTA #0 (27750,0), 2 CTAs running
GPGPU-Sim uArch: core: 12, cta: 0 initialized @(27751,0)
GPGPU-Sim uArch: Shader 8 finished CTA #0 (27831,0), 2 CTAs running
GPGPU-Sim uArch: core:  8, cta: 0 initialized @(27832,0)
GPGPU-Sim PTX: 20500000 instructions simulated : ctaid=(212,0,0) tid=(240,0,0)
GPGPU-Sim uArch: Shader 4 finished CTA #0 (27856,0), 2 CTAs running
GPGPU-Sim uArch: core:  4, cta: 0 initialized @(27857,0)
GPGPU-Sim PTX: 20600000 instructions simulated : ctaid=(196,0,0) tid=(272,0,0)
GPGPU-Sim uArch: cycles simulated: 28000  inst.: 20178011 (ipc=720.6) sim_rate=917182 (inst/sec) elapsed = 0:0:00:22 / Mon Jan 28 00:56:52 2019
GPGPU-Sim uArch: Shader 0 finished CTA #0 (28035,0), 2 CTAs running
GPGPU-Sim uArch: core:  0, cta: 0 initialized @(28036,0)
GPGPU-Sim uArch: Shader 1 finished CTA #0 (28045,0), 2 CTAs running
GPGPU-Sim uArch: Shader 6 finished CTA #0 (28045,0), 2 CTAs running
GPGPU-Sim uArch: core:  1, cta: 0 initialized @(28046,0)
GPGPU-Sim uArch: core:  6, cta: 0 initialized @(28046,0)
GPGPU-Sim uArch: Shader 5 finished CTA #0 (28093,0), 2 CTAs running
GPGPU-Sim PTX: 20700000 instructions simulated : ctaid=(220,0,0) tid=(17,0,0)
GPGPU-Sim uArch: core:  5, cta: 0 initialized @(28094,0)
GPGPU-Sim uArch: Shader 14 finished CTA #0 (28134,0), 2 CTAs running
GPGPU-Sim uArch: core: 14, cta: 0 initialized @(28135,0)
GPGPU-Sim uArch: Shader 7 finished CTA #0 (28151,0), 2 CTAs running
GPGPU-Sim uArch: core:  7, cta: 0 initialized @(28152,0)
GPGPU-Sim uArch: Shader 9 finished CTA #0 (28162,0), 2 CTAs running
GPGPU-Sim uArch: core:  9, cta: 0 initialized @(28163,0)
GPGPU-Sim PTX: 20800000 instructions simulated : ctaid=(222,0,0) tid=(119,0,0)
GPGPU-Sim uArch: Shader 11 finished CTA #0 (28232,0), 2 CTAs running
GPGPU-Sim uArch: core: 11, cta: 0 initialized @(28233,0)
GPGPU-Sim uArch: Shader 10 finished CTA #0 (28258,0), 2 CTAs running
GPGPU-Sim uArch: core: 10, cta: 0 initialized @(28259,0)
GPGPU-Sim PTX: 20900000 instructions simulated : ctaid=(206,0,0) tid=(445,0,0)
GPGPU-Sim uArch: Shader 3 finished CTA #0 (28387,0), 2 CTAs running
GPGPU-Sim uArch: core:  3, cta: 0 initialized @(28388,0)
GPGPU-Sim uArch: Shader 13 finished CTA #0 (28403,0), 2 CTAs running
GPGPU-Sim uArch: core: 13, cta: 0 initialized @(28404,0)
GPGPU-Sim PTX: 21000000 instructions simulated : ctaid=(230,0,0) tid=(453,0,0)
GPGPU-Sim PTX: 21100000 instructions simulated : ctaid=(196,0,0) tid=(141,0,0)
GPGPU-Sim PTX: 21200000 instructions simulated : ctaid=(221,0,0) tid=(57,0,0)
GPGPU-Sim PTX: 21300000 instructions simulated : ctaid=(212,0,0) tid=(461,0,0)
GPGPU-Sim PTX: 21400000 instructions simulated : ctaid=(204,0,0) tid=(45,0,0)
GPGPU-Sim uArch: cycles simulated: 29000  inst.: 20958536 (ipc=722.7) sim_rate=911240 (inst/sec) elapsed = 0:0:00:23 / Mon Jan 28 00:56:53 2019
GPGPU-Sim PTX: 21500000 instructions simulated : ctaid=(235,0,0) tid=(475,0,0)
GPGPU-Sim PTX: 21600000 instructions simulated : ctaid=(214,0,0) tid=(447,0,0)
GPGPU-Sim PTX: 21700000 instructions simulated : ctaid=(200,0,0) tid=(419,0,0)
GPGPU-Sim PTX: 21800000 instructions simulated : ctaid=(218,0,0) tid=(53,0,0)
GPGPU-Sim uArch: Shader 9 finished CTA #1 (29542,0), 2 CTAs running
GPGPU-Sim uArch: core:  9, cta: 1 initialized @(29543,0)
GPGPU-Sim uArch: Shader 7 finished CTA #1 (29608,0), 2 CTAs running
GPGPU-Sim uArch: core:  7, cta: 1 initialized @(29609,0)
GPGPU-Sim PTX: 21900000 instructions simulated : ctaid=(226,0,0) tid=(316,0,0)
GPGPU-Sim uArch: Shader 8 finished CTA #1 (29658,0), 2 CTAs running
GPGPU-Sim uArch: core:  8, cta: 1 initialized @(29659,0)
GPGPU-Sim PTX: 22000000 instructions simulated : ctaid=(211,0,0) tid=(25,0,0)
GPGPU-Sim uArch: Shader 0 finished CTA #1 (29736,0), 2 CTAs running
GPGPU-Sim uArch: core:  0, cta: 1 initialized @(29737,0)
GPGPU-Sim uArch: Shader 3 finished CTA #1 (29741,0), 2 CTAs running
GPGPU-Sim uArch: core:  3, cta: 1 initialized @(29742,0)
GPGPU-Sim uArch: Shader 10 finished CTA #1 (29744,0), 2 CTAs running
GPGPU-Sim uArch: core: 10, cta: 1 initialized @(29745,0)
GPGPU-Sim uArch: Shader 13 finished CTA #1 (29769,0), 2 CTAs running
GPGPU-Sim uArch: core: 13, cta: 1 initialized @(29770,0)
GPGPU-Sim uArch: Shader 4 finished CTA #1 (29809,0), 2 CTAs running
GPGPU-Sim uArch: core:  4, cta: 1 initialized @(29810,0)
GPGPU-Sim uArch: Shader 1 finished CTA #1 (29828,0), 2 CTAs running
GPGPU-Sim uArch: core:  1, cta: 1 initialized @(29829,0)
GPGPU-Sim uArch: Shader 14 finished CTA #1 (29839,0), 2 CTAs running
GPGPU-Sim uArch: core: 14, cta: 1 initialized @(29840,0)
GPGPU-Sim PTX: 22100000 instructions simulated : ctaid=(213,0,0) tid=(47,0,0)
GPGPU-Sim uArch: Shader 11 finished CTA #1 (29870,0), 2 CTAs running
GPGPU-Sim uArch: core: 11, cta: 1 initialized @(29871,0)
GPGPU-Sim uArch: Shader 12 finished CTA #1 (29878,0), 2 CTAs running
GPGPU-Sim uArch: core: 12, cta: 1 initialized @(29879,0)
GPGPU-Sim uArch: Shader 5 finished CTA #1 (29886,0), 2 CTAs running
GPGPU-Sim uArch: core:  5, cta: 1 initialized @(29887,0)
GPGPU-Sim PTX: 22200000 instructions simulated : ctaid=(231,0,0) tid=(451,0,0)
GPGPU-Sim uArch: cycles simulated: 30000  inst.: 21737604 (ipc=724.6) sim_rate=905733 (inst/sec) elapsed = 0:0:00:24 / Mon Jan 28 00:56:54 2019
GPGPU-Sim uArch: Shader 2 finished CTA #0 (30080,0), 2 CTAs running
GPGPU-Sim uArch: core:  2, cta: 0 initialized @(30081,0)
GPGPU-Sim uArch: Shader 6 finished CTA #1 (30102,0), 2 CTAs running
GPGPU-Sim uArch: core:  6, cta: 1 initialized @(30103,0)
GPGPU-Sim PTX: 22300000 instructions simulated : ctaid=(212,0,0) tid=(307,0,0)
GPGPU-Sim PTX: 22400000 instructions simulated : ctaid=(215,0,0) tid=(299,0,0)
GPGPU-Sim PTX: 22500000 instructions simulated : ctaid=(246,0,0) tid=(135,0,0)
GPGPU-Sim PTX: 22600000 instructions simulated : ctaid=(216,0,0) tid=(219,0,0)
GPGPU-Sim PTX: 22700000 instructions simulated : ctaid=(211,0,0) tid=(411,0,0)
GPGPU-Sim PTX: 22800000 instructions simulated : ctaid=(234,0,0) tid=(494,0,0)
GPGPU-Sim PTX: 22900000 instructions simulated : ctaid=(212,0,0) tid=(260,0,0)
GPGPU-Sim PTX: 23000000 instructions simulated : ctaid=(229,0,0) tid=(286,0,0)
GPGPU-Sim uArch: cycles simulated: 31000  inst.: 22522774 (ipc=726.5) sim_rate=900910 (inst/sec) elapsed = 0:0:00:25 / Mon Jan 28 00:56:55 2019
GPGPU-Sim PTX: 23100000 instructions simulated : ctaid=(241,0,0) tid=(463,0,0)
GPGPU-Sim uArch: Shader 9 finished CTA #2 (31137,0), 2 CTAs running
GPGPU-Sim uArch: core:  9, cta: 2 initialized @(31138,0)
GPGPU-Sim uArch: Shader 1 finished CTA #2 (31143,0), 2 CTAs running
GPGPU-Sim uArch: core:  1, cta: 2 initialized @(31144,0)
GPGPU-Sim uArch: Shader 0 finished CTA #2 (31158,0), 2 CTAs running
GPGPU-Sim uArch: core:  0, cta: 2 initialized @(31159,0)
GPGPU-Sim uArch: Shader 3 finished CTA #2 (31223,0), 2 CTAs running
GPGPU-Sim uArch: core:  3, cta: 2 initialized @(31224,0)
GPGPU-Sim PTX: 23200000 instructions simulated : ctaid=(242,0,0) tid=(169,0,0)
GPGPU-Sim uArch: Shader 4 finished CTA #2 (31263,0), 2 CTAs running
GPGPU-Sim uArch: core:  4, cta: 2 initialized @(31264,0)
GPGPU-Sim uArch: Shader 11 finished CTA #2 (31277,0), 2 CTAs running
GPGPU-Sim uArch: core: 11, cta: 2 initialized @(31278,0)
GPGPU-Sim uArch: Shader 5 finished CTA #2 (31311,0), 2 CTAs running
GPGPU-Sim uArch: core:  5, cta: 2 initialized @(31312,0)
GPGPU-Sim uArch: Shader 12 finished CTA #2 (31322,0), 2 CTAs running
GPGPU-Sim uArch: core: 12, cta: 2 initialized @(31323,0)
GPGPU-Sim uArch: Shader 13 finished CTA #2 (31348,0), 2 CTAs running
GPGPU-Sim uArch: core: 13, cta: 2 initialized @(31349,0)
GPGPU-Sim PTX: 23300000 instructions simulated : ctaid=(241,0,0) tid=(79,0,0)
GPGPU-Sim uArch: Shader 6 finished CTA #2 (31384,0), 2 CTAs running
GPGPU-Sim uArch: core:  6, cta: 2 initialized @(31385,0)
GPGPU-Sim PTX: 23400000 instructions simulated : ctaid=(263,0,0) tid=(88,0,0)
GPGPU-Sim uArch: Shader 10 finished CTA #2 (31494,0), 2 CTAs running
GPGPU-Sim uArch: core: 10, cta: 2 initialized @(31495,0)
GPGPU-Sim uArch: Shader 8 finished CTA #2 (31511,0), 2 CTAs running
GPGPU-Sim uArch: core:  8, cta: 2 initialized @(31512,0)
GPGPU-Sim uArch: Shader 2 finished CTA #2 (31527,0), 2 CTAs running
GPGPU-Sim uArch: core:  2, cta: 2 initialized @(31528,0)
GPGPU-Sim PTX: 23500000 instructions simulated : ctaid=(234,0,0) tid=(321,0,0)
GPGPU-Sim uArch: Shader 7 finished CTA #2 (31673,0), 2 CTAs running
GPGPU-Sim uArch: core:  7, cta: 2 initialized @(31674,0)
GPGPU-Sim PTX: 23600000 instructions simulated : ctaid=(244,0,0) tid=(241,0,0)
GPGPU-Sim uArch: Shader 14 finished CTA #2 (31813,0), 2 CTAs running
GPGPU-Sim uArch: core: 14, cta: 2 initialized @(31814,0)
GPGPU-Sim PTX: 23700000 instructions simulated : ctaid=(225,0,0) tid=(425,0,0)
GPGPU-Sim PTX: 23800000 instructions simulated : ctaid=(236,0,0) tid=(233,0,0)
GPGPU-Sim uArch: cycles simulated: 32000  inst.: 23318090 (ipc=728.7) sim_rate=896849 (inst/sec) elapsed = 0:0:00:26 / Mon Jan 28 00:56:56 2019
GPGPU-Sim PTX: 23900000 instructions simulated : ctaid=(231,0,0) tid=(385,0,0)
GPGPU-Sim PTX: 24000000 instructions simulated : ctaid=(227,0,0) tid=(169,0,0)
GPGPU-Sim PTX: 24100000 instructions simulated : ctaid=(226,0,0) tid=(457,0,0)
GPGPU-Sim PTX: 24200000 instructions simulated : ctaid=(258,0,0) tid=(225,0,0)
GPGPU-Sim PTX: 24300000 instructions simulated : ctaid=(240,0,0) tid=(372,0,0)
GPGPU-Sim PTX: 24400000 instructions simulated : ctaid=(226,0,0) tid=(509,0,0)
GPGPU-Sim PTX: 24500000 instructions simulated : ctaid=(231,0,0) tid=(111,0,0)
GPGPU-Sim PTX: 24600000 instructions simulated : ctaid=(229,0,0) tid=(92,0,0)
GPGPU-Sim uArch: cycles simulated: 33000  inst.: 24107330 (ipc=730.5) sim_rate=892864 (inst/sec) elapsed = 0:0:00:27 / Mon Jan 28 00:56:57 2019
GPGPU-Sim uArch: Shader 2 finished CTA #1 (33004,0), 2 CTAs running
GPGPU-Sim uArch: core:  2, cta: 1 initialized @(33005,0)
GPGPU-Sim PTX: 24700000 instructions simulated : ctaid=(240,0,0) tid=(269,0,0)
GPGPU-Sim uArch: Shader 12 finished CTA #0 (33115,0), 2 CTAs running
GPGPU-Sim uArch: core: 12, cta: 0 initialized @(33116,0)
GPGPU-Sim PTX: 24800000 instructions simulated : ctaid=(249,0,0) tid=(222,0,0)
GPGPU-Sim PTX: 24900000 instructions simulated : ctaid=(243,0,0) tid=(272,0,0)
GPGPU-Sim uArch: Shader 5 finished CTA #0 (33343,0), 2 CTAs running
GPGPU-Sim uArch: core:  5, cta: 0 initialized @(33344,0)
GPGPU-Sim uArch: Shader 7 finished CTA #0 (33374,0), 2 CTAs running
GPGPU-Sim uArch: core:  7, cta: 0 initialized @(33375,0)
GPGPU-Sim uArch: Shader 6 finished CTA #0 (33426,0), 2 CTAs running
GPGPU-Sim uArch: core:  6, cta: 0 initialized @(33427,0)
GPGPU-Sim uArch: Shader 8 finished CTA #0 (33455,0), 2 CTAs running
GPGPU-Sim uArch: core:  8, cta: 0 initialized @(33456,0)
GPGPU-Sim uArch: Shader 4 finished CTA #0 (33460,0), 2 CTAs running
GPGPU-Sim uArch: core:  4, cta: 0 initialized @(33461,0)
GPGPU-Sim PTX: 25000000 instructions simulated : ctaid=(267,0,0) tid=(277,0,0)
GPGPU-Sim uArch: Shader 1 finished CTA #0 (33471,0), 2 CTAs running
GPGPU-Sim uArch: core:  1, cta: 0 initialized @(33472,0)
GPGPU-Sim uArch: Shader 14 finished CTA #0 (33491,0), 2 CTAs running
GPGPU-Sim uArch: core: 14, cta: 0 initialized @(33492,0)
GPGPU-Sim uArch: Shader 11 finished CTA #0 (33526,0), 2 CTAs running
GPGPU-Sim uArch: core: 11, cta: 0 initialized @(33527,0)
GPGPU-Sim uArch: Shader 0 finished CTA #0 (33588,0), 2 CTAs running
GPGPU-Sim uArch: core:  0, cta: 0 initialized @(33589,0)
GPGPU-Sim PTX: 25100000 instructions simulated : ctaid=(254,0,0) tid=(263,0,0)
GPGPU-Sim uArch: Shader 9 finished CTA #0 (33605,0), 2 CTAs running
GPGPU-Sim uArch: core:  9, cta: 0 initialized @(33606,0)
GPGPU-Sim uArch: Shader 10 finished CTA #0 (33703,0), 2 CTAs running
GPGPU-Sim uArch: core: 10, cta: 0 initialized @(33704,0)
GPGPU-Sim PTX: 25200000 instructions simulated : ctaid=(244,0,0) tid=(242,0,0)
GPGPU-Sim uArch: Shader 3 finished CTA #0 (33763,0), 2 CTAs running
GPGPU-Sim uArch: core:  3, cta: 0 initialized @(33764,0)
GPGPU-Sim PTX: 25300000 instructions simulated : ctaid=(267,0,0) tid=(311,0,0)
GPGPU-Sim uArch: Shader 13 finished CTA #0 (33909,0), 2 CTAs running
GPGPU-Sim uArch: core: 13, cta: 0 initialized @(33910,0)
GPGPU-Sim PTX: 25400000 instructions simulated : ctaid=(262,0,0) tid=(271,0,0)
GPGPU-Sim uArch: cycles simulated: 34000  inst.: 24882884 (ipc=731.8) sim_rate=888674 (inst/sec) elapsed = 0:0:00:28 / Mon Jan 28 00:56:58 2019
GPGPU-Sim PTX: 25500000 instructions simulated : ctaid=(242,0,0) tid=(167,0,0)
GPGPU-Sim PTX: 25600000 instructions simulated : ctaid=(268,0,0) tid=(167,0,0)
GPGPU-Sim PTX: 25700000 instructions simulated : ctaid=(273,0,0) tid=(111,0,0)
GPGPU-Sim PTX: 25800000 instructions simulated : ctaid=(252,0,0) tid=(267,0,0)
GPGPU-Sim PTX: 25900000 instructions simulated : ctaid=(250,0,0) tid=(445,0,0)
GPGPU-Sim PTX: 26000000 instructions simulated : ctaid=(240,0,0) tid=(49,0,0)
GPGPU-Sim PTX: 26100000 instructions simulated : ctaid=(242,0,0) tid=(261,0,0)
GPGPU-Sim PTX: 26200000 instructions simulated : ctaid=(248,0,0) tid=(430,0,0)
GPGPU-Sim uArch: cycles simulated: 35000  inst.: 25668518 (ipc=733.4) sim_rate=885121 (inst/sec) elapsed = 0:0:00:29 / Mon Jan 28 00:56:59 2019
GPGPU-Sim uArch: Shader 7 finished CTA #1 (35000,0), 2 CTAs running
GPGPU-Sim uArch: core:  7, cta: 1 initialized @(35001,0)
GPGPU-Sim PTX: 26300000 instructions simulated : ctaid=(256,0,0) tid=(324,0,0)
GPGPU-Sim uArch: Shader 4 finished CTA #1 (35144,0), 2 CTAs running
GPGPU-Sim uArch: core:  4, cta: 1 initialized @(35145,0)
GPGPU-Sim uArch: Shader 14 finished CTA #1 (35190,0), 2 CTAs running
GPGPU-Sim uArch: core: 14, cta: 1 initialized @(35191,0)
GPGPU-Sim PTX: 26400000 instructions simulated : ctaid=(266,0,0) tid=(113,0,0)
GPGPU-Sim uArch: Shader 10 finished CTA #1 (35278,0), 2 CTAs running
GPGPU-Sim uArch: core: 10, cta: 1 initialized @(35279,0)
GPGPU-Sim uArch: Shader 5 finished CTA #1 (35289,0), 2 CTAs running
GPGPU-Sim uArch: core:  5, cta: 1 initialized @(35290,0)
GPGPU-Sim uArch: Shader 3 finished CTA #1 (35291,0), 2 CTAs running
GPGPU-Sim uArch: core:  3, cta: 1 initialized @(35292,0)
GPGPU-Sim uArch: Shader 0 finished CTA #1 (35298,0), 2 CTAs running
GPGPU-Sim uArch: core:  0, cta: 1 initialized @(35299,0)
GPGPU-Sim uArch: Shader 9 finished CTA #1 (35315,0), 2 CTAs running
GPGPU-Sim uArch: core:  9, cta: 1 initialized @(35316,0)
GPGPU-Sim uArch: Shader 1 finished CTA #1 (35317,0), 2 CTAs running
GPGPU-Sim uArch: core:  1, cta: 1 initialized @(35318,0)
GPGPU-Sim uArch: Shader 8 finished CTA #1 (35325,0), 2 CTAs running
GPGPU-Sim uArch: core:  8, cta: 1 initialized @(35326,0)
GPGPU-Sim uArch: Shader 13 finished CTA #1 (35327,0), 2 CTAs running
GPGPU-Sim uArch: core: 13, cta: 1 initialized @(35328,0)
GPGPU-Sim PTX: 26500000 instructions simulated : ctaid=(260,0,0) tid=(136,0,0)
GPGPU-Sim uArch: Shader 12 finished CTA #1 (35390,0), 2 CTAs running
GPGPU-Sim uArch: core: 12, cta: 1 initialized @(35391,0)
GPGPU-Sim uArch: Shader 2 finished CTA #0 (35403,0), 2 CTAs running
GPGPU-Sim uArch: core:  2, cta: 0 initialized @(35404,0)
[...]
gpgpu_stall_shd_mem[g_mem_st][icnt_rc] = 0
gpgpu_stall_shd_mem[g_mem_st][wb_icnt_rc] = 0
gpgpu_stall_shd_mem[g_mem_st][wb_rsrv_fail] = 0
gpgpu_stall_shd_mem[l_mem_ld][mshr_rc] = 0
gpgpu_stall_shd_mem[l_mem_ld][icnt_rc] = 0
gpgpu_stall_shd_mem[l_mem_ld][wb_icnt_rc] = 0
gpgpu_stall_shd_mem[l_mem_ld][wb_rsrv_fail] = 0
gpgpu_stall_shd_mem[l_mem_st][mshr_rc] = 0
gpgpu_stall_shd_mem[l_mem_st][icnt_rc] = 0
gpgpu_stall_shd_mem[l_mem_ld][wb_icnt_rc] = 0
gpgpu_stall_shd_mem[l_mem_ld][wb_rsrv_fail] = 0
gpu_reg_bank_conflict_stalls = 0
Warp Occupancy Distribution:
Stall:151282	W0_Idle:110932	W0_Scoreboard:374028	W1:13678	W2:7816	W3:0	W4:7816	W5:0	W6:0	W7:0	W8:7816	W9:0	W10:0	W11:0	W12:0	W13:0	W14:0	W15:0	W16:7816	W17:0	W18:0	W19:0	W20:0	W21:0	W22:0	W23:0	W24:0	W25:0	W26:0	W27:0	W28:0	W29:0	W30:0	W31:0	W32:2993416
traffic_breakdown_coretomem[CONST_ACC_R] = 120 {8:15,}
traffic_breakdown_coretomem[GLOBAL_ACC_R] = 250112 {8:31264,}
traffic_breakdown_coretomem[GLOBAL_ACC_W] = 39080 {40:977,}
traffic_breakdown_coretomem[INST_ACC_R] = 480 {8:60,}
traffic_breakdown_memtocore[CONST_ACC_R] = 1080 {72:15,}
traffic_breakdown_memtocore[GLOBAL_ACC_R] = 4251904 {136:31264,}
traffic_breakdown_memtocore[GLOBAL_ACC_W] = 7816 {8:977,}
traffic_breakdown_memtocore[INST_ACC_R] = 8160 {136:60,}
maxmrqlatency = 194 
maxdqlatency = 0 
maxmflatency = 775 
averagemflatency = 276 
max_icnt2mem_latency = 394 
max_icnt2sh_latency = 123977 
mrq_lat_table:26720 	1944 	885 	638 	565 	368 	224 	64 	0 	0 	0 	0 	0 	0 	0 	0 	0 	0 	0 	0 	0 	0 	0 	0 	0 	0 	0 	0 	0 	0 	0 	0 	
dq_lat_table:0 	0 	0 	0 	0 	0 	0 	0 	0 	0 	0 	0 	0 	0 	0 	0 	0 	0 	0 	0 	0 	0 	0 	0 	0 	0 	0 	0 	0 	0 	0 	0 	
mf_lat_table:0 	0 	0 	0 	0 	0 	0 	941 	30939 	376 	0 	0 	0 	0 	0 	0 	0 	0 	0 	0 	0 	0 	0 	0 	0 	0 	0 	0 	0 	0 	0 	0 	
icnt2mem_lat_table:0 	0 	0 	31059 	723 	423 	64 	24 	23 	0 	0 	0 	0 	0 	0 	0 	0 	0 	0 	0 	0 	0 	0 	0 	
icnt2sh_lat_table:0 	0 	0 	13337 	13570 	4217 	155 	0 	0 	0 	0 	0 	41 	49 	135 	270 	482 	0 	0 	0 	0 	0 	0 	0 	
mf_lat_pw_table:0 	0 	0 	0 	0 	0 	0 	79 	153 	0 	0 	0 	0 	0 	0 	0 	0 	0 	0 	0 	0 	0 	0 	0 	0 	0 	0 	0 	0 	0 	0 	0 	
maximum concurrent accesses to same row:
dram[0]:        32        32        32        32        32        32        32        32        32        32        32        32        32        32        32        32 
dram[1]:        32        32        32        32        32        32        32        32        32        32        32        32        32        32        32        32 
dram[2]:        32        32        32        32        32        32        32        32        32        32        32        32        32        32        32        32 
dram[3]:        32        32        32        32        32        32        32        32        32        32        32        32        32        32        32        32 
dram[4]:        32        32        32        32        32        32        32        32        32        32        32        32        32        32        32        32 
dram[5]:        32        32        32        32        32        32        32        32        32        32        32        32        32        32        32        32 
maximum service time to same row:
dram[0]:     12613     12527     12686     12684     14551     14474     12538     12554     12730     12692     13469     13596     16424     16564     12741     12666 
dram[1]:     12620     12496     12688     12707     14549     14462     12541     12594     12725     12754     13475     13603     16456     16553     12779     12713 
dram[2]:     12625     12584     12688     12655     14550     14443     12531     12644     12760     12693     13491     13536     16561     16471     12775     12647 
dram[3]:     12649     12539     12676     12664     14537     14345     12531     12597     12788     12967     13514     13541     16434     16473     12775     12672 
dram[4]:     12555     12564     12696     12691     14530     14453     12587     12622     12706     12607     13530     13492     16576     16548     12666     12703 
dram[5]:     12544     12546     12704     12627     14525     14482     12558     12621     12728     12717     13543     13519     16553     16690     12668     12610 
average row accesses per activate:
dram[0]: 24.846153 32.000000 32.000000 32.000000 30.000000 30.000000 32.000000 32.000000 25.846153 25.384615 32.000000 32.000000 32.000000 32.000000 32.000000 32.000000 
dram[1]: 29.272728 32.000000 32.000000 32.000000 30.000000 30.000000 32.000000 32.000000 24.000000 22.066668 32.000000 32.000000 32.000000 32.000000 32.000000 32.000000 
dram[2]: 32.000000 32.000000 32.000000 32.000000 30.000000 30.181818 32.000000 32.000000 22.200001 27.416666 32.000000 32.000000 32.000000 32.000000 32.000000 32.000000 
dram[3]: 32.000000 32.000000 32.000000 32.000000 30.000000 30.181818 32.000000 32.000000 25.846153 24.500000 32.000000 32.000000 32.000000 32.000000 32.000000 32.000000 
dram[4]: 32.000000 32.000000 32.000000 32.000000 30.000000 30.181818 32.000000 32.000000 20.562500 19.705883 32.000000 32.000000 32.000000 32.000000 32.000000 32.000000 
dram[5]: 32.000000 32.000000 32.000000 32.000000 30.000000 30.181818 32.000000 32.000000 22.066668 22.799999 32.000000 32.000000 32.000000 32.000000 32.000000 32.000000 
average row locality = 31408/1040 = 30.200001
number of total memory accesses made:
dram[0]:         0         0         0         0         0         0         0         0         0         0         0         0         0         0         0         0 
dram[1]:         0         0         0         0         0         0         0         0         0         0         0         0         0         0         0         0 
dram[2]:         0         0         0         0         0         0         0         0         0         0         0         0         0         0         0         0 
dram[3]:         0         0         0         0         0         0         0         0         0         0         0         0         0         0         0         0 
dram[4]:         0         0         0         0         0         0         0         0         0         0         0         0         0         0         0         0 
dram[5]:         0         0         0         0         0         0         0         0         0         0         0         0         0         0         0         0 
total accesses: 0
min_bank_accesses = 0!
min_chip_accesses = 0!
number of total read accesses:
dram[0]:       323       320       320       320       330       330       352       352       327       324       320       320       320       320       320       320 
dram[1]:       322       320       320       320       330       330       352       352       326       324       320       320       320       320       320       320 
dram[2]:       320       320       320       320       330       332       352       352       326       324       320       320       320       320       320       320 
dram[3]:       320       320       320       320       330       332       352       352       326       326       320       320       320       320       320       320 
dram[4]:       320       320       320       320       330       332       352       352       324       326       320       320       320       320       320       320 
dram[5]:       320       320       320       320       330       332       352       352       324       326       320       320       320       320       320       320 
total reads: 31300
bank skew: 352/320 = 1.10
chip skew: 5218/5216 = 1.00
number of total write accesses:
dram[0]:         0         0         0         0         0         0         0         0         9         6         0         0         0         0         0         0 
dram[1]:         0         0         0         0         0         0         0         0        10         7         0         0         0         0         0         0 
dram[2]:         0         0         0         0         0         0         0         0         7         5         0         0         0         0         0         0 
dram[3]:         0         0         0         0         0         0         0         0        10        17         0         0         0         0         0         0 
dram[4]:         0         0         0         0         0         0         0         0         5         9         0         0         0         0         0         0 
dram[5]:         0         0         0         0         0         0         0         0         7        16         0         0         0         0         0         0 
total reads: 108
min_bank_accesses = 0!
chip skew: 27/12 = 2.25
average mf latency per bank:
dram[0]:        287       278       270       271       270       273       287       290       315       305       295       286       282       281       277       283
dram[1]:        276       279       271       273       270       271       285       285       303       300       292       284       283       279       279       285
dram[2]:        279       277       272       273       272       270       283       288       301       306       278       287       279       280       283       284
dram[3]:        281       287       273       280       271       273       285       291       302       337       284       289       279       283       284       295
dram[4]:        273       280       267       276       272       274       283       294       306       331       286       292       279       282       279       289
dram[5]:        274       279       270       275       271       271       283       288       301       321       281       280       278       276       278       285
maximum mf latency per bank:
dram[0]:        465       473       408       361       408       399       617       593       643       529       690       626       677       635       440       595
dram[1]:        466       459       412       366       382       359       633       532       608       500       696       650       702       532       450       601
dram[2]:        516       433       486       342       453       437       547       657       514       589       591       664       574       663       555       519
dram[3]:        530       617       460       476       446       378       576       659       566       553       593       587       607       592       546       746
dram[4]:        427       468       343       413       393       419       541       627       575       675       609       775       615       575       466       557
dram[5]:        479       477       335       389       356       461       533       565       526       498       578       517       590       537       471       534
Memory Partition 0: 
Cache L2_bank_000:
MSHR contents

Cache L2_bank_001:
MSHR contents

In Dram Latency Queue (total = 0): 
DRAM[0]: 16 bks, busW=4 BL=8 CL=12, tRRD=2 tCCD=6, tRCD=12 tRAS=28 tRP=12 tRC=40
n_cmd=163650 n_nop=152865 n_act=173 n_pre=157 n_req=5233 n_rd=10436 n_write=19 bw_util=0.1278
n_activity=55554 dram_eff=0.3764
bk0: 646a 161731i bk1: 640a 161538i bk2: 640a 161741i bk3: 640a 161348i bk4: 660a 161642i bk5: 660a 161337i bk6: 704a 161464i bk7: 704a 161117i bk8: 654a 161588i bk9: 648a 161084i bk10: 640a 161355i bk11: 640a 160925i bk12: 640a 161400i bk13: 640a 161159i bk14: 640a 161641i bk15: 640a 161350i 
dram_util_bins: 0 0 0 0 0 0 0 0 0 0
dram_eff_bins: 0 0 0 0 0 0 0 0 0 0
mrqq: max=16 avg=0.0976352
Memory Partition 1: 
Cache L2_bank_002:
MSHR contents

Cache L2_bank_003:
MSHR contents

In Dram Latency Queue (total = 0): 
DRAM[1]: 16 bks, busW=4 BL=8 CL=12, tRRD=2 tCCD=6, tRCD=12 tRAS=28 tRP=12 tRC=40
n_cmd=163650 n_nop=152865 n_act=174 n_pre=158 n_req=5233 n_rd=10432 n_write=21 bw_util=0.1277
n_activity=56044 dram_eff=0.373
bk0: 644a 161801i bk1: 640a 161594i bk2: 640a 161726i bk3: 640a 161590i bk4: 660a 161683i bk5: 660a 161464i bk6: 704a 161442i bk7: 704a 161056i bk8: 652a 161562i bk9: 648a 161170i bk10: 640a 161261i bk11: 640a 161008i bk12: 640a 161277i bk13: 640a 161046i bk14: 640a 161662i bk15: 640a 161286i 
dram_util_bins: 0 0 0 0 0 0 0 0 0 0
dram_eff_bins: 0 0 0 0 0 0 0 0 0 0
mrqq: max=16 avg=0.095081
Memory Partition 2: 
Cache L2_bank_004:
MSHR contents

Cache L2_bank_005:
MSHR contents

In Dram Latency Queue (total = 0): 
DRAM[2]: 16 bks, busW=4 BL=8 CL=12, tRRD=2 tCCD=6, tRCD=12 tRAS=28 tRP=12 tRC=40
n_cmd=163650 n_nop=152877 n_act=171 n_pre=155 n_req=5228 n_rd=10432 n_write=15 bw_util=0.1277
n_activity=55026 dram_eff=0.3797
bk0: 640a 161810i bk1: 640a 161517i bk2: 640a 161668i bk3: 640a 161479i bk4: 660a 161619i bk5: 664a 161397i bk6: 704a 161456i bk7: 704a 161049i bk8: 652a 161599i bk9: 648a 161247i bk10: 640a 161513i bk11: 640a 161245i bk12: 640a 161597i bk13: 640a 161292i bk14: 640a 161509i bk15: 640a 161227i 
dram_util_bins: 0 0 0 0 0 0 0 0 0 0
dram_eff_bins: 0 0 0 0 0 0 0 0 0 0
mrqq: max=16 avg=0.0891231
Memory Partition 3: 
Cache L2_bank_006:
MSHR contents

Cache L2_bank_007:
MSHR contents

In Dram Latency Queue (total = 0): 
DRAM[3]: 16 bks, busW=4 BL=8 CL=12, tRRD=2 tCCD=6, tRCD=12 tRAS=28 tRP=12 tRC=40
n_cmd=163650 n_nop=152857 n_act=171 n_pre=155 n_req=5245 n_rd=10436 n_write=31 bw_util=0.1279
n_activity=55930 dram_eff=0.3743
bk0: 640a 161865i bk1: 640a 161614i bk2: 640a 161773i bk3: 640a 161492i bk4: 660a 161704i bk5: 664a 161400i bk6: 704a 161415i bk7: 704a 160935i bk8: 652a 161660i bk9: 652a 161012i bk10: 640a 161417i bk11: 640a 161033i bk12: 640a 161555i bk13: 640a 161265i bk14: 640a 161498i bk15: 640a 161204i 
dram_util_bins: 0 0 0 0 0 0 0 0 0 0
dram_eff_bins: 0 0 0 0 0 0 0 0 0 0
mrqq: max=16 avg=0.0956798
Memory Partition 4: 
Cache L2_bank_008:
MSHR contents

Cache L2_bank_009:
MSHR contents

In Dram Latency Queue (total = 0): 
DRAM[4]: 16 bks, busW=4 BL=8 CL=12, tRRD=2 tCCD=6, tRCD=12 tRAS=28 tRP=12 tRC=40
n_cmd=163650 n_nop=152862 n_act=177 n_pre=161 n_req=5230 n_rd=10432 n_write=18 bw_util=0.1277
n_activity=55057 dram_eff=0.3796
bk0: 640a 161842i bk1: 640a 161473i bk2: 640a 161698i bk3: 640a 161357i bk4: 660a 161509i bk5: 664a 161425i bk6: 704a 161360i bk7: 704a 160915i bk8: 648a 161630i bk9: 652a 161168i bk10: 640a 161297i bk11: 640a 161039i bk12: 640a 161445i bk13: 640a 161139i bk14: 640a 161503i bk15: 640a 161217i 
dram_util_bins: 0 0 0 0 0 0 0 0 0 0
dram_eff_bins: 0 0 0 0 0 0 0 0 0 0
mrqq: max=16 avg=0.106324
Memory Partition 5: 
Cache L2_bank_010:
MSHR contents

Cache L2_bank_011:
MSHR contents

In Dram Latency Queue (total = 0): 
DRAM[5]: 16 bks, busW=4 BL=8 CL=12, tRRD=2 tCCD=6, tRCD=12 tRAS=28 tRP=12 tRC=40
n_cmd=163650 n_nop=152859 n_act=174 n_pre=158 n_req=5239 n_rd=10432 n_write=27 bw_util=0.1278
n_activity=55458 dram_eff=0.3772
bk0: 640a 161876i bk1: 640a 161591i bk2: 640a 161701i bk3: 640a 161429i bk4: 660a 161513i bk5: 664a 161485i bk6: 704a 161427i bk7: 704a 160911i bk8: 648a 161570i bk9: 652a 161135i bk10: 640a 161356i bk11: 640a 161212i bk12: 640a 161530i bk13: 640a 161286i bk14: 640a 161616i bk15: 640a 161213i 
dram_util_bins: 0 0 0 0 0 0 0 0 0 0
dram_eff_bins: 0 0 0 0 0 0 0 0 0 0
mrqq: max=16 avg=0.0898564

========= L2 cache stats =========
L2_cache_bank[0]: Access = 2732, Miss = 2612, Miss_rate = 0.956, Pending_hits = 13, Reservation_fails = 484
L2_cache_bank[1]: Access = 2668, Miss = 2606, Miss_rate = 0.977, Pending_hits = 2, Reservation_fails = 186
L2_cache_bank[2]: Access = 2700, Miss = 2610, Miss_rate = 0.967, Pending_hits = 12, Reservation_fails = 293
L2_cache_bank[3]: Access = 2668, Miss = 2606, Miss_rate = 0.977, Pending_hits = 3, Reservation_fails = 140
L2_cache_bank[4]: Access = 2670, Miss = 2608, Miss_rate = 0.977, Pending_hits = 3, Reservation_fails = 62
L2_cache_bank[5]: Access = 2670, Miss = 2608, Miss_rate = 0.977, Pending_hits = 2, Reservation_fails = 122
L2_cache_bank[6]: Access = 2670, Miss = 2608, Miss_rate = 0.977, Pending_hits = 6, Reservation_fails = 66
L2_cache_bank[7]: Access = 2734, Miss = 2610, Miss_rate = 0.955, Pending_hits = 11, Reservation_fails = 450
L2_cache_bank[8]: Access = 2668, Miss = 2606, Miss_rate = 0.977, Pending_hits = 1, Reservation_fails = 98
L2_cache_bank[9]: Access = 2734, Miss = 2610, Miss_rate = 0.955, Pending_hits = 3, Reservation_fails = 56
L2_cache_bank[10]: Access = 2668, Miss = 2606, Miss_rate = 0.977, Pending_hits = 3, Reservation_fails = 76
L2_cache_bank[11]: Access = 2734, Miss = 2610, Miss_rate = 0.955, Pending_hits = 10, Reservation_fails = 62
L2_total_cache_accesses = 32316
L2_total_cache_misses = 31300
L2_total_cache_miss_rate = 0.9686
L2_total_cache_pending_hits = 69
L2_total_cache_reservation_fails = 2095
L2_total_cache_breakdown:
	L2_cache_stats_breakdown[GLOBAL_ACC_R][MISS] = 31264
	L2_cache_stats_breakdown[GLOBAL_ACC_R][RESERVATION_FAIL] = 1166
	L2_cache_stats_breakdown[CONST_ACC_R][HIT] = 11
	L2_cache_stats_breakdown[CONST_ACC_R][HIT_RESERVED] = 3
	L2_cache_stats_breakdown[CONST_ACC_R][MISS] = 1
	L2_cache_stats_breakdown[CONST_ACC_R][RESERVATION_FAIL] = 102
	L2_cache_stats_breakdown[GLOBAL_ACC_W][HIT] = 892
	L2_cache_stats_breakdown[GLOBAL_ACC_W][HIT_RESERVED] = 54
	L2_cache_stats_breakdown[GLOBAL_ACC_W][MISS] = 31
	L2_cache_stats_breakdown[GLOBAL_ACC_W][RESERVATION_FAIL] = 387
	L2_cache_stats_breakdown[INST_ACC_R][HIT] = 44
	L2_cache_stats_breakdown[INST_ACC_R][HIT_RESERVED] = 12
	L2_cache_stats_breakdown[INST_ACC_R][MISS] = 4
	L2_cache_stats_breakdown[INST_ACC_R][RESERVATION_FAIL] = 440
L2_cache_data_port_util = 0.001
L2_cache_fill_port_util = 0.084

icnt_total_pkts_mem_to_simt=157642
icnt_total_pkts_simt_to_mem=33293
LD_mem_lat_dist  0 0 0 0 0 0 0 0 0 0 0 0 0 0 0 0 0 0 0 0 0 0 0 0 0 0 0
ST_mem_lat_dist  0 0 0 0 0 0 0 0 0 0 0 0 0 0 0 0 0 0 0 0 0 0 0 0 0 0 0
----------------------------Interconnect-DETAILS--------------------------------
Class 0:
Packet latency average = 12.7779
	minimum = 6
	maximum = 114
Network latency average = 11.9554
	minimum = 6
	maximum = 114
Slowest packet = 3999
Flit latency average = 11.4362
	minimum = 6
	maximum = 114
Slowest flit = 11078
Fragmentation average = 0
	minimum = 0
	maximum = 0
Injected packet rate average = 0.0193081
	minimum = 0.0173418 (at node 0)
	maximum = 0.0220523 (at node 22)
Accepted packet rate average = 0.0193081
	minimum = 0.0173418 (at node 0)
	maximum = 0.0220523 (at node 22)
Injected flit rate average = 0.0570397
	minimum = 0.0178661 (at node 0)
	maximum = 0.107325 (at node 15)
Accepted flit rate average= 0.0570397
	minimum = 0.0220362 (at node 16)
	maximum = 0.0858943 (at node 4)
Injected packet length average = 2.95419
Accepted packet length average = 2.95419
Total in-flight flits = 0 (0 measured)
====== Overall Traffic Statistics ======
====== Traffic class 0 ======
Packet latency average = 12.7779 (1 samples)
	minimum = 6 (1 samples)
	maximum = 114 (1 samples)
Network latency average = 11.9554 (1 samples)
	minimum = 6 (1 samples)
	maximum = 114 (1 samples)
Flit latency average = 11.4362 (1 samples)
	minimum = 6 (1 samples)
	maximum = 114 (1 samples)
Fragmentation average = 0 (1 samples)
	minimum = 0 (1 samples)
	maximum = 0 (1 samples)
Injected packet rate average = 0.0193081 (1 samples)
	minimum = 0.0173418 (1 samples)
	maximum = 0.0220523 (1 samples)
Accepted packet rate average = 0.0193081 (1 samples)
	minimum = 0.0173418 (1 samples)
	maximum = 0.0220523 (1 samples)
Injected flit rate average = 0.0570397 (1 samples)
	minimum = 0.0178661 (1 samples)
	maximum = 0.107325 (1 samples)
Accepted flit rate average = 0.0570397 (1 samples)
	minimum = 0.0220362 (1 samples)
	maximum = 0.0858943 (1 samples)
Injected packet size average = 2.95419 (1 samples)
Accepted packet size average = 2.95419 (1 samples)
Hops average = 1 (1 samples)
----------------------------END-of-Interconnect-DETAILS-------------------------


gpgpu_simulation_time = 0 days, 0 hrs, 1 min, 58 sec (118 sec)
gpgpu_simulation_rate = 796923 (inst/sec)
gpgpu_simulation_rate = 1050 (cycle/sec)
118.739487 s
Copying data from device to host...0.000199 s
Verifying results...TEST PASSED

