

        *** GPGPU-Sim Simulator Version 3.2.2  [build 0] ***


GPGPU-Sim PTX: simulation mode 0 (can change with PTX_SIM_MODE_FUNC environment variable:
               1=functional simulation only, 0=detailed performance simulator)
GPGPU-Sim: Configuration options:

-network_mode                           1 # Interconnection network mode
-inter_config_file   config_fermi_islip.icnt # Interconnection network config file
-gpgpu_ptx_use_cuobjdump                    1 # Use cuobjdump to extract ptx and sass from binaries
-gpgpu_experimental_lib_support                    0 # Try to extract code from cuda libraries [Broken because of unknown cudaGetExportTable]
-gpgpu_ptx_convert_to_ptxplus                    0 # Convert SASS (native ISA) to ptxplus and run ptxplus
-gpgpu_ptx_force_max_capability                   20 # Force maximum compute capability
-gpgpu_ptx_inst_debug_to_file                    0 # Dump executed instructions' debug information to file
-gpgpu_ptx_inst_debug_file       inst_debug.txt # Executed instructions' debug output file
-gpgpu_ptx_inst_debug_thread_uid                    1 # Thread UID for executed instructions' debug output
-gpgpu_simd_model                       1 # 1 = post-dominator
-gpgpu_shader_core_pipeline              1536:32 # shader core pipeline config, i.e., {<nthread>:<warpsize>}
-gpgpu_tex_cache:l1  4:128:24,L:R:m:N:L,F:128:4,128:2 # per-shader L1 texture cache  (READ-ONLY) config  {<nsets>:<bsize>:<assoc>,<rep>:<wr>:<alloc>:<wr_alloc>,<mshr>:<N>:<merge>,<mq>:<rf>}
-gpgpu_const_cache:l1 64:64:2,L:R:f:N:L,A:2:32,4 # per-shader L1 constant memory cache  (READ-ONLY) config  {<nsets>:<bsize>:<assoc>,<rep>:<wr>:<alloc>:<wr_alloc>,<mshr>:<N>:<merge>,<mq>} 
-gpgpu_cache:il1     4:128:4,L:R:f:N:L,A:2:32,4 # shader L1 instruction cache config  {<nsets>:<bsize>:<assoc>,<rep>:<wr>:<alloc>:<wr_alloc>,<mshr>:<N>:<merge>,<mq>} 
-gpgpu_cache:dl1     32:128:4,L:L:m:N:H,A:32:8,8 # per-shader L1 data cache config  {<nsets>:<bsize>:<assoc>,<rep>:<wr>:<alloc>:<wr_alloc>,<mshr>:<N>:<merge>,<mq> | none}
-gpgpu_cache:dl1PrefL1                 none # per-shader L1 data cache config  {<nsets>:<bsize>:<assoc>,<rep>:<wr>:<alloc>:<wr_alloc>,<mshr>:<N>:<merge>,<mq> | none}
-gpgpu_cache:dl1PreShared                 none # per-shader L1 data cache config  {<nsets>:<bsize>:<assoc>,<rep>:<wr>:<alloc>:<wr_alloc>,<mshr>:<N>:<merge>,<mq> | none}
-gmem_skip_L1D                          0 # global memory access skip L1D cache (implements -Xptxas -dlcm=cg, default=no skip)
-gpgpu_perfect_mem                      0 # enable perfect memory mode (no cache miss)
-n_regfile_gating_group                    4 # group of lanes that should be read/written together)
-gpgpu_clock_gated_reg_file                    0 # enable clock gated reg file for power calculations
-gpgpu_clock_gated_lanes                    0 # enable clock gated lanes for power calculations
-gpgpu_shader_registers                32768 # Number of registers per shader core. Limits number of concurrent CTAs. (default 8192)
-gpgpu_shader_cta                       8 # Maximum number of concurrent CTAs in shader (default 8)
-gpgpu_num_cta_barriers                   16 # Maximum number of named barriers per CTA (default 16)
-gpgpu_n_clusters                      15 # number of processing clusters
-gpgpu_n_cores_per_cluster                    1 # number of simd cores per cluster
-gpgpu_n_cluster_ejection_buffer_size                    8 # number of packets in ejection buffer
-gpgpu_n_ldst_response_buffer_size                    2 # number of response packets in ld/st unit ejection buffer
-gpgpu_shmem_size                   16384 # Size of shared memory per shader core (default 16kB)
-gpgpu_shmem_size                   49152 # Size of shared memory per shader core (default 16kB)
-gpgpu_shmem_size_PrefL1                16384 # Size of shared memory per shader core (default 16kB)
-gpgpu_shmem_size_PrefShared                16384 # Size of shared memory per shader core (default 16kB)
-gpgpu_shmem_num_banks                   32 # Number of banks in the shared memory in each shader core (default 16)
-gpgpu_shmem_limited_broadcast                    0 # Limit shared memory to do one broadcast per cycle (default on)
-gpgpu_shmem_warp_parts                    1 # Number of portions a warp is divided into for shared memory bank conflict check 
-gpgpu_warpdistro_shader                   -1 # Specify which shader core to collect the warp size distribution from
-gpgpu_warp_issue_shader                    0 # Specify which shader core to collect the warp issue distribution from
-gpgpu_local_mem_map                    1 # Mapping from local memory space address to simulated GPU physical address space (default = enabled)
-gpgpu_num_reg_banks                   16 # Number of register banks (default = 8)
-gpgpu_reg_bank_use_warp_id                    0 # Use warp ID in mapping registers to banks (default = off)
-gpgpu_operand_collector_num_units_sp                    6 # number of collector units (default = 4)
-gpgpu_operand_collector_num_units_sfu                    8 # number of collector units (default = 4)
-gpgpu_operand_collector_num_units_mem                    2 # number of collector units (default = 2)
-gpgpu_operand_collector_num_units_gen                    0 # number of collector units (default = 0)
-gpgpu_operand_collector_num_in_ports_sp                    2 # number of collector unit in ports (default = 1)
-gpgpu_operand_collector_num_in_ports_sfu                    1 # number of collector unit in ports (default = 1)
-gpgpu_operand_collector_num_in_ports_mem                    1 # number of collector unit in ports (default = 1)
-gpgpu_operand_collector_num_in_ports_gen                    0 # number of collector unit in ports (default = 0)
-gpgpu_operand_collector_num_out_ports_sp                    2 # number of collector unit in ports (default = 1)
-gpgpu_operand_collector_num_out_ports_sfu                    1 # number of collector unit in ports (default = 1)
-gpgpu_operand_collector_num_out_ports_mem                    1 # number of collector unit in ports (default = 1)
-gpgpu_operand_collector_num_out_ports_gen                    0 # number of collector unit in ports (default = 0)
-gpgpu_coalesce_arch                   13 # Coalescing arch (default = 13, anything else is off for now)
-gpgpu_num_sched_per_core                    2 # Number of warp schedulers per core
-gpgpu_max_insn_issue_per_warp                    1 # Max number of instructions that can be issued per warp in one cycle by scheduler
-gpgpu_simt_core_sim_order                    1 # Select the simulation order of cores in a cluster (0=Fix, 1=Round-Robin)
-gpgpu_pipeline_widths        2,1,1,2,1,1,2 # Pipeline widths ID_OC_SP,ID_OC_SFU,ID_OC_MEM,OC_EX_SP,OC_EX_SFU,OC_EX_MEM,EX_WB
-gpgpu_num_sp_units                     2 # Number of SP units (default=1)
-gpgpu_num_sfu_units                    1 # Number of SF units (default=1)
-gpgpu_num_mem_units                    1 # Number if ldst units (default=1) WARNING: not hooked up to anything
-gpgpu_scheduler                      gto # Scheduler configuration: < lrr | gto | two_level_active > If two_level_active:<num_active_warps>:<inner_prioritization>:<outer_prioritization>For complete list of prioritization values see shader.h enum scheduler_prioritization_typeDefault: gto
-gpgpu_dram_scheduler                    1 # 0 = fifo, 1 = FR-FCFS (defaul)
-gpgpu_dram_partition_queues              8:8:8:8 # i2$:$2d:d2$:$2i
-l2_ideal                               0 # Use a ideal L2 cache that always hit
-gpgpu_cache:dl2     64:128:8,L:B:m:W:L,A:32:4,4:0,32 # unified banked L2 data cache config  {<nsets>:<bsize>:<assoc>,<rep>:<wr>:<alloc>:<wr_alloc>,<mshr>:<N>:<merge>,<mq>}
-gpgpu_cache:dl2_texture_only                    0 # L2 cache used for texture only
-gpgpu_n_mem                            6 # number of memory modules (e.g. memory controllers) in gpu
-gpgpu_n_sub_partition_per_mchannel                    2 # number of memory subpartition in each memory module
-gpgpu_n_mem_per_ctrlr                    2 # number of memory chips per memory controller
-gpgpu_memlatency_stat                   14 # track and display latency statistics 0x2 enables MC, 0x4 enables queue logs
-gpgpu_frfcfs_dram_sched_queue_size                   16 # 0 = unlimited (default); # entries per chip
-gpgpu_dram_return_queue_size                  116 # 0 = unlimited (default); # entries per chip
-gpgpu_dram_buswidth                    4 # default = 4 bytes (8 bytes per cycle at DDR)
-gpgpu_dram_burst_length                    8 # Burst length of each DRAM request (default = 4 data bus cycle)
-dram_data_command_freq_ratio                    4 # Frequency ratio between DRAM data bus and command bus (default = 2 times, i.e. DDR)
-gpgpu_dram_timing_opt nbk=16:CCD=2:RRD=6:RCD=12:RAS=28:RP=12:RC=40: CL=12:WL=4:CDLR=5:WR=12:nbkgrp=4:CCDL=3:RTPL=2 # DRAM timing parameters = {nbk:tCCD:tRRD:tRCD:tRAS:tRP:tRC:CL:WL:tCDLR:tWR:nbkgrp:tCCDL:tRTPL}
-rop_latency                          120 # ROP queue latency (default 85)
-dram_latency                         100 # DRAM latency (default 30)
-gpgpu_mem_addr_mapping dramid@8;00000000.00000000.00000000.00000000.0000RRRR.RRRRRRRR.BBBCCCCB.CCSSSSSS # mapping memory address to dram model {dramid@<start bit>;<memory address map>}
-gpgpu_mem_addr_test                    0 # run sweep test to check address mapping for aliased address
-gpgpu_mem_address_mask                    1 # 0 = old addressing mask, 1 = new addressing mask, 2 = new add. mask + flipped bank sel and chip sel bits
-gpuwattch_xml_file  gpuwattch_gtx480.xml # GPUWattch XML file
-power_simulation_enabled                    1 # Turn on power simulator (1=On, 0=Off)
-power_per_cycle_dump                    0 # Dump detailed power output each cycle
-power_trace_enabled                    0 # produce a file for the power trace (1=On, 0=Off)
-power_trace_zlevel                     6 # Compression level of the power trace output log (0=no comp, 9=highest)
-steady_power_levels_enabled                    0 # produce a file for the steady power levels (1=On, 0=Off)
-steady_state_definition                  8:4 # allowed deviation:number of samples
-gpgpu_max_cycle                        0 # terminates gpu simulation early (0 = no limit)
-gpgpu_max_insn                         0 # terminates gpu simulation early (0 = no limit)
-gpgpu_max_cta                          0 # terminates gpu simulation early (0 = no limit)
-gpgpu_runtime_stat                   500 # display runtime statistics such as dram utilization {<freq>:<flag>}
-liveness_message_freq                    1 # Minimum number of seconds between simulation liveness messages (0 = always print)
-gpgpu_flush_l1_cache                    0 # Flush L1 cache at the end of each kernel call
-gpgpu_flush_l2_cache                    0 # Flush L2 cache at the end of each kernel call
-gpgpu_deadlock_detect                    1 # Stop the simulation at deadlock (1=on (default), 0=off)
-gpgpu_ptx_instruction_classification                    0 # if enabled will classify ptx instruction types per kernel (Max 255 kernels now)
-gpgpu_ptx_sim_mode                     0 # Select between Performance (default) or Functional simulation (1)
-gpgpu_clock_domains 700.0:700.0:700.0:924.0 # Clock Domain Frequencies in MhZ {<Core Clock>:<ICNT Clock>:<L2 Clock>:<DRAM Clock>}
-gpgpu_max_concurrent_kernel                    8 # maximum kernels that can run concurrently on GPU
-gpgpu_cflog_interval                    0 # Interval between each snapshot in control flow logger
-visualizer_enabled                     0 # Turn on visualizer output (1=On, 0=Off)
-visualizer_outputfile                 NULL # Specifies the output log file for visualizer
-visualizer_zlevel                      6 # Compression level of the visualizer output log (0=no comp, 9=highest)
-trace_enabled                          0 # Turn on traces
-trace_components                    none # comma seperated list of traces to enable. Complete list found in trace_streams.tup. Default none
-trace_sampling_core                    0 # The core which is printed using CORE_DPRINTF. Default 0
-trace_sampling_memory_partition                   -1 # The memory partition which is printed using MEMPART_DPRINTF. Default -1 (i.e. all)
-enable_ptx_file_line_stats                    1 # Turn on PTX source line statistic profiling. (1 = On)
-ptx_line_stats_filename gpgpu_inst_stats.txt # Output file for PTX source line statistics.
-save_embedded_ptx                      0 # saves ptx files embedded in binary as <n>.ptx
-keep                                   0 # keep intermediate files created by GPGPU-Sim when interfacing with external programs
-gpgpu_ptx_save_converted_ptxplus                    0 # Saved converted ptxplus to a file
-ptx_opcode_latency_int         4,13,4,5,145 # Opcode latencies for integers <ADD,MAX,MUL,MAD,DIV>Default 1,1,19,25,145
-ptx_opcode_latency_fp          4,13,4,5,39 # Opcode latencies for single precision floating points <ADD,MAX,MUL,MAD,DIV>Default 1,1,1,1,30
-ptx_opcode_latency_dp         8,19,8,8,330 # Opcode latencies for double precision floating points <ADD,MAX,MUL,MAD,DIV>Default 8,8,8,8,335
-ptx_opcode_initiation_int            1,2,2,1,8 # Opcode initiation intervals for integers <ADD,MAX,MUL,MAD,DIV>Default 1,1,4,4,32
-ptx_opcode_initiation_fp            1,2,1,1,4 # Opcode initiation intervals for single precision floating points <ADD,MAX,MUL,MAD,DIV>Default 1,1,1,1,5
-ptx_opcode_initiation_dp         8,16,8,8,130 # Opcode initiation intervals for double precision floating points <ADD,MAX,MUL,MAD,DIV>Default 8,8,8,8,130
DRAM Timing Options:
nbk                                    16 # number of banks
CCD                                     2 # column to column delay
RRD                                     6 # minimal delay between activation of rows in different banks
RCD                                    12 # row to column delay
RAS                                    28 # time needed to activate row
RP                                     12 # time needed to precharge (deactivate) row
RC                                     40 # row cycle time
CDLR                                    5 # switching from write to read (changes tWTR)
WR                                     12 # last data-in to row precharge
CL                                     12 # CAS latency
WL                                      4 # Write latency
nbkgrp                                  4 # number of bank groups
CCDL                                    3 # column to column delay between accesses to different bank groups
RTPL                                    2 # read to precharge delay between accesses to different bank groups
Total number of memory sub partition = 12
addr_dec_mask[CHIP]  = 0000000000000000 	high:64 low:0
addr_dec_mask[BK]    = 000000000000e100 	high:16 low:8
addr_dec_mask[ROW]   = 000000000fff0000 	high:28 low:16
addr_dec_mask[COL]   = 0000000000001eff 	high:13 low:0
addr_dec_mask[BURST] = 000000000000003f 	high:6 low:0
sub_partition_id_mask = 0000000000000100
GPGPU-Sim uArch: clock freqs: 700000000.000000:700000000.000000:700000000.000000:924000000.000000
GPGPU-Sim uArch: clock periods: 0.00000000142857142857:0.00000000142857142857:0.00000000142857142857:0.00000000108225108225
*** Initializing Memory Statistics ***
GPGPU-Sim uArch: interconnect node map (shaderID+MemID to icntID)
GPGPU-Sim uArch: Memory nodes ID start from index: 15
GPGPU-Sim uArch:    0   1   2   3   4
GPGPU-Sim uArch:    5   6   7   8   9
GPGPU-Sim uArch:   10  11  12  13  14
GPGPU-Sim uArch:   15  16  17  18  19
GPGPU-Sim uArch:   20  21  22  23  24
GPGPU-Sim uArch:   25  26
GPGPU-Sim uArch: interconnect node reverse map (icntID to shaderID+MemID)
GPGPU-Sim uArch: Memory nodes start from ID: 15
GPGPU-Sim uArch:    0   1   2   3   4
GPGPU-Sim uArch:    5   6   7   8   9
GPGPU-Sim uArch:   10  11  12  13  14
GPGPU-Sim uArch:   15  16  17  18  19
GPGPU-Sim uArch:   20  21  22  23  24
GPGPU-Sim uArch:   25  26
c064a7ffbd36661e305b1546fbc6cf6e  /root/ee217/lab1/naive/reduction
GPGPU-Sim uArch: performance model initialization complete.
GPGPU-Sim PTX: __cudaRegisterFatBinary, fat_cubin_handle = 1, filename=main.cu
self exe links to: /root/ee217/lab1/naive/reduction
Running md5sum using "md5sum /root/ee217/lab1/naive/reduction "
Running cuobjdump using "$CUDA_INSTALL_PATH/bin/cuobjdump -ptx -elf -sass /root/ee217/lab1/naive/reduction > _cuobjdump_complete_output_QPRa3U"
Parsing file _cuobjdump_complete_output_QPRa3U
######### cuobjdump parser ########
## Adding new section ELF
Adding arch: sm_10
Adding identifier: main.cu
## Adding new section PTX
Adding ptx filename: _cuobjdump_1.ptx
Adding arch: sm_10
Adding identifier: main.cu
## Adding new section ELF
Adding arch: sm_10
Adding identifier: support.cu
## Adding new section PTX
Adding ptx filename: _cuobjdump_2.ptx
Adding arch: sm_10
Adding identifier: support.cu
Done parsing!!!
GPGPU-Sim PTX: __cudaRegisterFunction _Z9reductionPfS_j : hostFun 0x0x400e40, fat_cubin_handle = 1
GPGPU-Sim PTX: allocating shared region for "__cuda___cuda_local_var_16314_35_non_const_partialSum20" from 0x0 to 0x1000 (shared memory space)
GPGPU-Sim PTX: instruction assembly for function '_Z9reductionPfS_j'...   done.
GPGPU-Sim PTX: finding reconvergence points for '_Z9reductionPfS_j'...
GPGPU-Sim PTX: Finding dominators for '_Z9reductionPfS_j'...
GPGPU-Sim PTX: Finding immediate dominators for '_Z9reductionPfS_j'...
GPGPU-Sim PTX: Finding postdominators for '_Z9reductionPfS_j'...
GPGPU-Sim PTX: Finding immediate postdominators for '_Z9reductionPfS_j'...
GPGPU-Sim PTX: pre-decoding instructions for '_Z9reductionPfS_j'...
GPGPU-Sim PTX: reconvergence points for _Z9reductionPfS_j...
GPGPU-Sim PTX:  1 (potential) branch divergence @  PC=0x060 (_1.ptx:73) @%p1 bra $Lt_0_4610;
GPGPU-Sim PTX:    immediate post dominator      @  PC=0x0b0 (_1.ptx:87) add.u32 %r8, %r4, %r1;
GPGPU-Sim PTX:  2 (potential) branch divergence @  PC=0x098 (_1.ptx:81) bra.uni $Lt_0_4354;
GPGPU-Sim PTX:    immediate post dominator      @  PC=0x0b0 (_1.ptx:87) add.u32 %r8, %r4, %r1;
GPGPU-Sim PTX:  3 (potential) branch divergence @  PC=0x0e8 (_1.ptx:96) @%p2 bra $Lt_0_5122;
GPGPU-Sim PTX:    immediate post dominator      @  PC=0x148 (_1.ptx:112) mov.u32 %r12, 1;
GPGPU-Sim PTX:  4 (potential) branch divergence @  PC=0x130 (_1.ptx:106) bra.uni $Lt_0_4866;
GPGPU-Sim PTX:    immediate post dominator      @  PC=0x148 (_1.ptx:112) mov.u32 %r12, 1;
GPGPU-Sim PTX:  5 (potential) branch divergence @  PC=0x158 (_1.ptx:114) @%p3 bra $Lt_0_5378;
GPGPU-Sim PTX:    immediate post dominator      @  PC=0x208 (_1.ptx:143) mov.u32 %r18, 0;
GPGPU-Sim PTX:  6 (potential) branch divergence @  PC=0x188 (_1.ptx:123) @%p4 bra $Lt_0_6146;
GPGPU-Sim PTX:    immediate post dominator      @  PC=0x1f0 (_1.ptx:139) mul.lo.u32 %r13, %r13, 2;
GPGPU-Sim PTX:  7 (potential) branch divergence @  PC=0x200 (_1.ptx:141) @%p5 bra $Lt_0_5890;
GPGPU-Sim PTX:    immediate post dominator      @  PC=0x208 (_1.ptx:143) mov.u32 %r18, 0;
GPGPU-Sim PTX:  8 (potential) branch divergence @  PC=0x218 (_1.ptx:145) @%p6 bra $Lt_0_6914;
GPGPU-Sim PTX:    immediate post dominator      @  PC=0x250 (_1.ptx:155) exit;
GPGPU-Sim PTX: ... end of reconvergence points for _Z9reductionPfS_j
GPGPU-Sim PTX: ... done pre-decoding instructions for '_Z9reductionPfS_j'.
GPGPU-Sim PTX: finished parsing EMBEDDED .ptx file _1.ptx
Adding _cuobjdump_1.ptx with cubin handle 1
GPGPU-Sim PTX: extracting embedded .ptx to temporary file "_ptx_DoV49O"
Running: cat _ptx_DoV49O | sed 's/.version 1.5/.version 1.4/' | sed 's/, texmode_independent//' | sed 's/\(\.extern \.const\[1\] .b8 \w\+\)\[\]/\1\[1\]/' | sed 's/const\[.\]/const\[0\]/g' > _ptx2_Oop0gJ
GPGPU-Sim PTX: generating ptxinfo using "$CUDA_INSTALL_PATH/bin/ptxas --gpu-name=sm_20 -v _ptx2_Oop0gJ --output-file  /dev/null 2> _ptx_DoV49Oinfo"
GPGPU-Sim PTX: Kernel '_Z9reductionPfS_j' : regs=10, lmem=0, smem=4096, cmem=52
GPGPU-Sim PTX: removing ptxinfo using "rm -f _ptx_DoV49O _ptx2_Oop0gJ _ptx_DoV49Oinfo"
GPGPU-Sim PTX: loading globals with explicit initializers... 
GPGPU-Sim PTX: finished loading globals (0 bytes total).
GPGPU-Sim PTX: loading constants with explicit initializers...  done.
GPGPU-Sim PTX: __cudaRegisterFatBinary, fat_cubin_handle = 2, filename=support.cu

Setting up the problem...0.020882 s
    Input size = 1000000
Allocating device variables...0.000005 s
Copying data from host to device...0.103299 s
Launching kernel...
GPGPU-Sim PTX: cudaLaunch for 0x0x400e40 (mode=performance simulation) on stream 0
GPGPU-Sim PTX: pushing kernel '_Z9reductionPfS_j' to stream 0, gridDim= (977,1,1) blockDim = (512,1,1) 
kernel '_Z9reductionPfS_j' transfer to GPU hardware scheduler
GPGPU-Sim uArch: Shader 1 bind to kernel 1 '_Z9reductionPfS_j'
GPGPU-Sim uArch: CTA/core = 3, limited by: threads
GPGPU-Sim uArch: core:  1, cta: 0 initialized @(1,0)
GPGPU-Sim uArch: Shader 2 bind to kernel 1 '_Z9reductionPfS_j'
GPGPU-Sim uArch: core:  2, cta: 0 initialized @(1,0)
GPGPU-Sim uArch: Shader 3 bind to kernel 1 '_Z9reductionPfS_j'
GPGPU-Sim uArch: core:  3, cta: 0 initialized @(1,0)
GPGPU-Sim uArch: Shader 4 bind to kernel 1 '_Z9reductionPfS_j'
GPGPU-Sim uArch: core:  4, cta: 0 initialized @(1,0)
GPGPU-Sim uArch: Shader 5 bind to kernel 1 '_Z9reductionPfS_j'
GPGPU-Sim uArch: core:  5, cta: 0 initialized @(1,0)
GPGPU-Sim uArch: Shader 6 bind to kernel 1 '_Z9reductionPfS_j'
GPGPU-Sim uArch: core:  6, cta: 0 initialized @(1,0)
GPGPU-Sim uArch: Shader 7 bind to kernel 1 '_Z9reductionPfS_j'
GPGPU-Sim uArch: core:  7, cta: 0 initialized @(1,0)
GPGPU-Sim uArch: Shader 8 bind to kernel 1 '_Z9reductionPfS_j'
GPGPU-Sim uArch: core:  8, cta: 0 initialized @(1,0)
GPGPU-Sim uArch: Shader 9 bind to kernel 1 '_Z9reductionPfS_j'
GPGPU-Sim uArch: core:  9, cta: 0 initialized @(1,0)
GPGPU-Sim uArch: Shader 10 bind to kernel 1 '_Z9reductionPfS_j'
GPGPU-Sim uArch: core: 10, cta: 0 initialized @(1,0)
GPGPU-Sim uArch: Shader 11 bind to kernel 1 '_Z9reductionPfS_j'
GPGPU-Sim uArch: core: 11, cta: 0 initialized @(1,0)
GPGPU-Sim uArch: Shader 12 bind to kernel 1 '_Z9reductionPfS_j'
GPGPU-Sim uArch: core: 12, cta: 0 initialized @(1,0)
GPGPU-Sim uArch: Shader 13 bind to kernel 1 '_Z9reductionPfS_j'
GPGPU-Sim uArch: core: 13, cta: 0 initialized @(1,0)
GPGPU-Sim uArch: Shader 14 bind to kernel 1 '_Z9reductionPfS_j'
GPGPU-Sim uArch: core: 14, cta: 0 initialized @(1,0)
GPGPU-Sim uArch: Shader 0 bind to kernel 1 '_Z9reductionPfS_j'
GPGPU-Sim uArch: core:  0, cta: 0 initialized @(1,0)
GPGPU-Sim uArch: core:  1, cta: 1 initialized @(2,0)
GPGPU-Sim uArch: core:  2, cta: 1 initialized @(2,0)
GPGPU-Sim uArch: core:  3, cta: 1 initialized @(2,0)
GPGPU-Sim uArch: core:  4, cta: 1 initialized @(2,0)
GPGPU-Sim uArch: core:  5, cta: 1 initialized @(2,0)
GPGPU-Sim uArch: core:  6, cta: 1 initialized @(2,0)
GPGPU-Sim uArch: core:  7, cta: 1 initialized @(2,0)
GPGPU-Sim uArch: core:  8, cta: 1 initialized @(2,0)
GPGPU-Sim uArch: core:  9, cta: 1 initialized @(2,0)
GPGPU-Sim uArch: core: 10, cta: 1 initialized @(2,0)
GPGPU-Sim uArch: core: 11, cta: 1 initialized @(2,0)
GPGPU-Sim uArch: core: 12, cta: 1 initialized @(2,0)
GPGPU-Sim uArch: core: 13, cta: 1 initialized @(2,0)
GPGPU-Sim uArch: core: 14, cta: 1 initialized @(2,0)
GPGPU-Sim uArch: core:  0, cta: 1 initialized @(2,0)
GPGPU-Sim uArch: core:  1, cta: 2 initialized @(3,0)
GPGPU-Sim uArch: core:  2, cta: 2 initialized @(3,0)
GPGPU-Sim uArch: core:  3, cta: 2 initialized @(3,0)
GPGPU-Sim uArch: core:  4, cta: 2 initialized @(3,0)
GPGPU-Sim uArch: core:  5, cta: 2 initialized @(3,0)
GPGPU-Sim uArch: core:  6, cta: 2 initialized @(3,0)
GPGPU-Sim uArch: core:  7, cta: 2 initialized @(3,0)
GPGPU-Sim uArch: core:  8, cta: 2 initialized @(3,0)
GPGPU-Sim uArch: core:  9, cta: 2 initialized @(3,0)
GPGPU-Sim uArch: core: 10, cta: 2 initialized @(3,0)
GPGPU-Sim uArch: core: 11, cta: 2 initialized @(3,0)
GPGPU-Sim uArch: core: 12, cta: 2 initialized @(3,0)
GPGPU-Sim uArch: core: 13, cta: 2 initialized @(3,0)
GPGPU-Sim uArch: core: 14, cta: 2 initialized @(3,0)
GPGPU-Sim uArch: core:  0, cta: 2 initialized @(3,0)
GPGPU-Sim PTX: 100000 instructions simulated : ctaid=(15,0,0) tid=(191,0,0)
GPGPU-Sim uArch: cycles simulated: 500  inst.: 134016 (ipc=268.0) sim_rate=134016 (inst/sec) elapsed = 0:0:00:01 / Mon Jan 28 01:38:38 2019
GPGPU-Sim PTX: 200000 instructions simulated : ctaid=(24,0,0) tid=(383,0,0)
GPGPU-Sim PTX: 300000 instructions simulated : ctaid=(10,0,0) tid=(383,0,0)
GPGPU-Sim PTX: 400000 instructions simulated : ctaid=(42,0,0) tid=(287,0,0)
GPGPU-Sim PTX: 500000 instructions simulated : ctaid=(16,0,0) tid=(127,0,0)
GPGPU-Sim PTX: 600000 instructions simulated : ctaid=(29,0,0) tid=(351,0,0)
GPGPU-Sim PTX: 700000 instructions simulated : ctaid=(3,0,0) tid=(319,0,0)
GPGPU-Sim PTX: 800000 instructions simulated : ctaid=(1,0,0) tid=(31,0,0)
GPGPU-Sim uArch: cycles simulated: 2500  inst.: 795296 (ipc=318.1) sim_rate=397648 (inst/sec) elapsed = 0:0:00:02 / Mon Jan 28 01:38:39 2019
GPGPU-Sim PTX: 900000 instructions simulated : ctaid=(7,0,0) tid=(319,0,0)
GPGPU-Sim PTX: 1000000 instructions simulated : ctaid=(15,0,0) tid=(63,0,0)
GPGPU-Sim PTX: 1100000 instructions simulated : ctaid=(20,0,0) tid=(159,0,0)
GPGPU-Sim PTX: 1200000 instructions simulated : ctaid=(28,0,0) tid=(287,0,0)
GPGPU-Sim PTX: 1300000 instructions simulated : ctaid=(14,0,0) tid=(351,0,0)
GPGPU-Sim PTX: 1400000 instructions simulated : ctaid=(3,0,0) tid=(319,0,0)
GPGPU-Sim PTX: 1500000 instructions simulated : ctaid=(9,0,0) tid=(158,0,0)
GPGPU-Sim PTX: 1600000 instructions simulated : ctaid=(44,0,0) tid=(31,0,0)
GPGPU-Sim PTX: 1700000 instructions simulated : ctaid=(12,0,0) tid=(412,0,0)
GPGPU-Sim uArch: cycles simulated: 4000  inst.: 1668660 (ipc=417.2) sim_rate=556220 (inst/sec) elapsed = 0:0:00:03 / Mon Jan 28 01:38:40 2019
GPGPU-Sim PTX: 1800000 instructions simulated : ctaid=(1,0,0) tid=(295,0,0)
GPGPU-Sim PTX: 1900000 instructions simulated : ctaid=(9,0,0) tid=(459,0,0)
GPGPU-Sim PTX: 2000000 instructions simulated : ctaid=(7,0,0) tid=(368,0,0)
GPGPU-Sim PTX: 2100000 instructions simulated : ctaid=(40,0,0) tid=(261,0,0)
GPGPU-Sim PTX: 2200000 instructions simulated : ctaid=(16,0,0) tid=(351,0,0)
GPGPU-Sim PTX: 2300000 instructions simulated : ctaid=(6,0,0) tid=(352,0,0)
GPGPU-Sim PTX: 2400000 instructions simulated : ctaid=(10,0,0) tid=(326,0,0)
GPGPU-Sim PTX: 2500000 instructions simulated : ctaid=(22,0,0) tid=(435,0,0)
GPGPU-Sim PTX: 2600000 instructions simulated : ctaid=(11,0,0) tid=(442,0,0)
GPGPU-Sim uArch: cycles simulated: 6000  inst.: 2561291 (ipc=426.9) sim_rate=640322 (inst/sec) elapsed = 0:0:00:04 / Mon Jan 28 01:38:41 2019
GPGPU-Sim PTX: 2700000 instructions simulated : ctaid=(24,0,0) tid=(356,0,0)
GPGPU-Sim PTX: 2800000 instructions simulated : ctaid=(5,0,0) tid=(19,0,0)
GPGPU-Sim uArch: Shader 8 finished CTA #0 (6367,0), 2 CTAs running
GPGPU-Sim uArch: core:  8, cta: 0 initialized @(6368,0)
GPGPU-Sim uArch: Shader 4 finished CTA #0 (6373,0), 2 CTAs running
GPGPU-Sim uArch: core:  4, cta: 0 initialized @(6374,0)
GPGPU-Sim uArch: Shader 10 finished CTA #0 (6375,0), 2 CTAs running
GPGPU-Sim uArch: core: 10, cta: 0 initialized @(6376,0)
GPGPU-Sim uArch: Shader 11 finished CTA #0 (6377,0), 2 CTAs running
GPGPU-Sim uArch: core: 11, cta: 0 initialized @(6378,0)
GPGPU-Sim PTX: 2900000 instructions simulated : ctaid=(31,0,0) tid=(494,0,0)
GPGPU-Sim uArch: Shader 13 finished CTA #0 (6427,0), 2 CTAs running
GPGPU-Sim uArch: core: 13, cta: 0 initialized @(6428,0)
GPGPU-Sim uArch: Shader 3 finished CTA #0 (6432,0), 2 CTAs running
GPGPU-Sim uArch: core:  3, cta: 0 initialized @(6433,0)
GPGPU-Sim uArch: Shader 1 finished CTA #0 (6443,0), 2 CTAs running
GPGPU-Sim uArch: core:  1, cta: 0 initialized @(6444,0)
GPGPU-Sim uArch: Shader 2 finished CTA #0 (6451,0), 2 CTAs running
GPGPU-Sim uArch: core:  2, cta: 0 initialized @(6452,0)
GPGPU-Sim uArch: Shader 14 finished CTA #0 (6479,0), 2 CTAs running
GPGPU-Sim uArch: core: 14, cta: 0 initialized @(6480,0)
GPGPU-Sim uArch: Shader 12 finished CTA #0 (6524,0), 2 CTAs running
GPGPU-Sim uArch: core: 12, cta: 0 initialized @(6525,0)
GPGPU-Sim uArch: Shader 7 finished CTA #0 (6528,0), 2 CTAs running
GPGPU-Sim uArch: core:  7, cta: 0 initialized @(6529,0)
GPGPU-Sim uArch: Shader 9 finished CTA #0 (6551,0), 2 CTAs running
GPGPU-Sim uArch: core:  9, cta: 0 initialized @(6552,0)
GPGPU-Sim uArch: Shader 0 finished CTA #0 (6589,0), 2 CTAs running
GPGPU-Sim uArch: core:  0, cta: 0 initialized @(6590,0)
GPGPU-Sim PTX: 3000000 instructions simulated : ctaid=(48,0,0) tid=(181,0,0)
GPGPU-Sim uArch: Shader 6 finished CTA #0 (6592,0), 2 CTAs running
GPGPU-Sim uArch: core:  6, cta: 0 initialized @(6593,0)
GPGPU-Sim uArch: Shader 5 finished CTA #0 (6615,0), 2 CTAs running
GPGPU-Sim uArch: core:  5, cta: 0 initialized @(6616,0)
GPGPU-Sim PTX: 3100000 instructions simulated : ctaid=(54,0,0) tid=(42,0,0)
GPGPU-Sim PTX: 3200000 instructions simulated : ctaid=(27,0,0) tid=(158,0,0)
GPGPU-Sim uArch: Shader 8 finished CTA #1 (7076,0), 2 CTAs running
GPGPU-Sim uArch: core:  8, cta: 1 initialized @(7077,0)
GPGPU-Sim PTX: 3300000 instructions simulated : ctaid=(50,0,0) tid=(155,0,0)
GPGPU-Sim uArch: Shader 3 finished CTA #1 (7137,0), 2 CTAs running
GPGPU-Sim uArch: core:  3, cta: 1 initialized @(7138,0)
GPGPU-Sim uArch: Shader 1 finished CTA #1 (7157,0), 2 CTAs running
GPGPU-Sim uArch: core:  1, cta: 1 initialized @(7158,0)
GPGPU-Sim uArch: Shader 2 finished CTA #1 (7180,0), 2 CTAs running
GPGPU-Sim uArch: core:  2, cta: 1 initialized @(7181,0)
GPGPU-Sim uArch: Shader 11 finished CTA #1 (7212,0), 2 CTAs running
GPGPU-Sim uArch: core: 11, cta: 1 initialized @(7213,0)
GPGPU-Sim uArch: Shader 4 finished CTA #1 (7246,0), 2 CTAs running
GPGPU-Sim uArch: core:  4, cta: 1 initialized @(7247,0)
GPGPU-Sim uArch: Shader 10 finished CTA #1 (7251,0), 2 CTAs running
GPGPU-Sim uArch: core: 10, cta: 1 initialized @(7252,0)
GPGPU-Sim uArch: Shader 12 finished CTA #1 (7253,0), 2 CTAs running
GPGPU-Sim uArch: core: 12, cta: 1 initialized @(7254,0)
GPGPU-Sim PTX: 3400000 instructions simulated : ctaid=(66,0,0) tid=(406,0,0)
GPGPU-Sim uArch: Shader 13 finished CTA #1 (7280,0), 2 CTAs running
GPGPU-Sim uArch: core: 13, cta: 1 initialized @(7281,0)
GPGPU-Sim uArch: Shader 0 finished CTA #1 (7286,0), 2 CTAs running
GPGPU-Sim uArch: core:  0, cta: 1 initialized @(7287,0)
GPGPU-Sim uArch: Shader 6 finished CTA #1 (7292,0), 2 CTAs running
GPGPU-Sim uArch: core:  6, cta: 1 initialized @(7293,0)
GPGPU-Sim uArch: Shader 9 finished CTA #1 (7326,0), 2 CTAs running
GPGPU-Sim uArch: core:  9, cta: 1 initialized @(7327,0)
GPGPU-Sim uArch: Shader 5 finished CTA #1 (7339,0), 2 CTAs running
GPGPU-Sim uArch: core:  5, cta: 1 initialized @(7340,0)
GPGPU-Sim uArch: Shader 7 finished CTA #1 (7369,0), 2 CTAs running
GPGPU-Sim uArch: core:  7, cta: 1 initialized @(7370,0)
GPGPU-Sim uArch: Shader 14 finished CTA #1 (7386,0), 2 CTAs running
GPGPU-Sim uArch: core: 14, cta: 1 initialized @(7387,0)
GPGPU-Sim PTX: 3500000 instructions simulated : ctaid=(61,0,0) tid=(58,0,0)
GPGPU-Sim uArch: cycles simulated: 7500  inst.: 3405845 (ipc=454.1) sim_rate=681169 (inst/sec) elapsed = 0:0:00:05 / Mon Jan 28 01:38:42 2019
GPGPU-Sim PTX: 3600000 instructions simulated : ctaid=(37,0,0) tid=(203,0,0)
GPGPU-Sim PTX: 3700000 instructions simulated : ctaid=(56,0,0) tid=(227,0,0)
GPGPU-Sim PTX: 3800000 instructions simulated : ctaid=(42,0,0) tid=(190,0,0)
GPGPU-Sim PTX: 3900000 instructions simulated : ctaid=(45,0,0) tid=(346,0,0)
GPGPU-Sim PTX: 4000000 instructions simulated : ctaid=(56,0,0) tid=(27,0,0)
GPGPU-Sim PTX: 4100000 instructions simulated : ctaid=(53,0,0) tid=(311,0,0)
GPGPU-Sim uArch: Shader 1 finished CTA #2 (8299,0), 2 CTAs running
GPGPU-Sim uArch: core:  1, cta: 2 initialized @(8300,0)
GPGPU-Sim uArch: Shader 2 finished CTA #2 (8336,0), 2 CTAs running
GPGPU-Sim uArch: core:  2, cta: 2 initialized @(8337,0)
GPGPU-Sim uArch: Shader 4 finished CTA #2 (8348,0), 2 CTAs running
GPGPU-Sim uArch: core:  4, cta: 2 initialized @(8349,0)
GPGPU-Sim PTX: 4200000 instructions simulated : ctaid=(56,0,0) tid=(212,0,0)
GPGPU-Sim uArch: Shader 5 finished CTA #2 (8363,0), 2 CTAs running
GPGPU-Sim uArch: core:  5, cta: 2 initialized @(8364,0)
GPGPU-Sim uArch: Shader 12 finished CTA #2 (8369,0), 2 CTAs running
GPGPU-Sim uArch: core: 12, cta: 2 initialized @(8370,0)
GPGPU-Sim uArch: Shader 3 finished CTA #2 (8396,0), 2 CTAs running
GPGPU-Sim uArch: core:  3, cta: 2 initialized @(8397,0)
GPGPU-Sim uArch: Shader 7 finished CTA #2 (8398,0), 2 CTAs running
GPGPU-Sim uArch: core:  7, cta: 2 initialized @(8399,0)
GPGPU-Sim uArch: Shader 14 finished CTA #2 (8402,0), 2 CTAs running
GPGPU-Sim uArch: core: 14, cta: 2 initialized @(8403,0)
GPGPU-Sim uArch: Shader 0 finished CTA #2 (8427,0), 2 CTAs running
GPGPU-Sim uArch: core:  0, cta: 2 initialized @(8428,0)
GPGPU-Sim uArch: Shader 8 finished CTA #2 (8449,0), 2 CTAs running
GPGPU-Sim uArch: core:  8, cta: 2 initialized @(8450,0)
GPGPU-Sim uArch: Shader 9 finished CTA #2 (8465,0), 2 CTAs running
GPGPU-Sim uArch: core:  9, cta: 2 initialized @(8466,0)
GPGPU-Sim uArch: Shader 11 finished CTA #2 (8473,0), 2 CTAs running
GPGPU-Sim uArch: core: 11, cta: 2 initialized @(8474,0)
GPGPU-Sim PTX: 4300000 instructions simulated : ctaid=(60,0,0) tid=(397,0,0)
GPGPU-Sim uArch: Shader 13 finished CTA #2 (8497,0), 2 CTAs running
GPGPU-Sim uArch: core: 13, cta: 2 initialized @(8498,0)
GPGPU-Sim uArch: cycles simulated: 8500  inst.: 4101266 (ipc=482.5) sim_rate=683544 (inst/sec) elapsed = 0:0:00:06 / Mon Jan 28 01:38:43 2019
GPGPU-Sim uArch: Shader 6 finished CTA #2 (8519,0), 2 CTAs running
GPGPU-Sim uArch: core:  6, cta: 2 initialized @(8520,0)
GPGPU-Sim uArch: Shader 10 finished CTA #2 (8544,0), 2 CTAs running
GPGPU-Sim uArch: core: 10, cta: 2 initialized @(8545,0)
GPGPU-Sim PTX: 4400000 instructions simulated : ctaid=(60,0,0) tid=(149,0,0)
GPGPU-Sim PTX: 4500000 instructions simulated : ctaid=(51,0,0) tid=(149,0,0)
GPGPU-Sim PTX: 4600000 instructions simulated : ctaid=(57,0,0) tid=(105,0,0)
GPGPU-Sim PTX: 4700000 instructions simulated : ctaid=(65,0,0) tid=(329,0,0)
GPGPU-Sim PTX: 4800000 instructions simulated : ctaid=(52,0,0) tid=(349,0,0)
GPGPU-Sim PTX: 4900000 instructions simulated : ctaid=(55,0,0) tid=(415,0,0)
GPGPU-Sim PTX: 5000000 instructions simulated : ctaid=(72,0,0) tid=(321,0,0)
GPGPU-Sim PTX: 5100000 instructions simulated : ctaid=(80,0,0) tid=(388,0,0)
GPGPU-Sim PTX: 5200000 instructions simulated : ctaid=(69,0,0) tid=(101,0,0)
GPGPU-Sim uArch: cycles simulated: 10000  inst.: 4979930 (ipc=498.0) sim_rate=711418 (inst/sec) elapsed = 0:0:00:07 / Mon Jan 28 01:38:44 2019
GPGPU-Sim PTX: 5300000 instructions simulated : ctaid=(70,0,0) tid=(105,0,0)
GPGPU-Sim PTX: 5400000 instructions simulated : ctaid=(73,0,0) tid=(262,0,0)
GPGPU-Sim PTX: 5500000 instructions simulated : ctaid=(54,0,0) tid=(227,0,0)
GPGPU-Sim PTX: 5600000 instructions simulated : ctaid=(89,0,0) tid=(446,0,0)
GPGPU-Sim PTX: 5700000 instructions simulated : ctaid=(65,0,0) tid=(179,0,0)
GPGPU-Sim uArch: Shader 4 finished CTA #0 (11007,0), 2 CTAs running
GPGPU-Sim uArch: core:  4, cta: 0 initialized @(11008,0)
GPGPU-Sim PTX: 5800000 instructions simulated : ctaid=(60,0,0) tid=(10,0,0)
GPGPU-Sim uArch: Shader 8 finished CTA #0 (11116,0), 2 CTAs running
GPGPU-Sim uArch: core:  8, cta: 0 initialized @(11117,0)
GPGPU-Sim uArch: Shader 5 finished CTA #0 (11166,0), 2 CTAs running
GPGPU-Sim uArch: core:  5, cta: 0 initialized @(11167,0)
GPGPU-Sim uArch: Shader 2 finished CTA #0 (11191,0), 2 CTAs running
GPGPU-Sim uArch: core:  2, cta: 0 initialized @(11192,0)
GPGPU-Sim uArch: Shader 9 finished CTA #0 (11196,0), 2 CTAs running
GPGPU-Sim uArch: core:  9, cta: 0 initialized @(11197,0)
GPGPU-Sim uArch: Shader 3 finished CTA #0 (11198,0), 2 CTAs running
GPGPU-Sim uArch: core:  3, cta: 0 initialized @(11199,0)
GPGPU-Sim uArch: Shader 13 finished CTA #0 (11212,0), 2 CTAs running
GPGPU-Sim uArch: core: 13, cta: 0 initialized @(11213,0)
GPGPU-Sim PTX: 5900000 instructions simulated : ctaid=(73,0,0) tid=(98,0,0)
GPGPU-Sim uArch: Shader 11 finished CTA #0 (11247,0), 2 CTAs running
GPGPU-Sim uArch: core: 11, cta: 0 initialized @(11248,0)
GPGPU-Sim uArch: Shader 14 finished CTA #0 (11251,0), 2 CTAs running
GPGPU-Sim uArch: core: 14, cta: 0 initialized @(11252,0)
GPGPU-Sim uArch: Shader 12 finished CTA #0 (11267,0), 2 CTAs running
GPGPU-Sim uArch: core: 12, cta: 0 initialized @(11268,0)
GPGPU-Sim uArch: Shader 10 finished CTA #0 (11279,0), 2 CTAs running
GPGPU-Sim uArch: core: 10, cta: 0 initialized @(11280,0)
GPGPU-Sim uArch: Shader 1 finished CTA #0 (11326,0), 2 CTAs running
GPGPU-Sim uArch: core:  1, cta: 0 initialized @(11327,0)
GPGPU-Sim uArch: Shader 7 finished CTA #0 (11382,0), 2 CTAs running
GPGPU-Sim uArch: core:  7, cta: 0 initialized @(11383,0)
GPGPU-Sim PTX: 6000000 instructions simulated : ctaid=(69,0,0) tid=(426,0,0)
GPGPU-Sim uArch: Shader 0 finished CTA #0 (11409,0), 2 CTAs running
GPGPU-Sim uArch: core:  0, cta: 0 initialized @(11410,0)
GPGPU-Sim uArch: Shader 6 finished CTA #0 (11460,0), 2 CTAs running
GPGPU-Sim uArch: core:  6, cta: 0 initialized @(11461,0)
GPGPU-Sim uArch: cycles simulated: 11500  inst.: 5795436 (ipc=504.0) sim_rate=724429 (inst/sec) elapsed = 0:0:00:08 / Mon Jan 28 01:38:45 2019
GPGPU-Sim PTX: 6100000 instructions simulated : ctaid=(67,0,0) tid=(404,0,0)
GPGPU-Sim PTX: 6200000 instructions simulated : ctaid=(101,0,0) tid=(481,0,0)
GPGPU-Sim PTX: 6300000 instructions simulated : ctaid=(93,0,0) tid=(271,0,0)
GPGPU-Sim PTX: 6400000 instructions simulated : ctaid=(93,0,0) tid=(145,0,0)
GPGPU-Sim PTX: 6500000 instructions simulated : ctaid=(87,0,0) tid=(383,0,0)
GPGPU-Sim PTX: 6600000 instructions simulated : ctaid=(65,0,0) tid=(232,0,0)
GPGPU-Sim PTX: 6700000 instructions simulated : ctaid=(73,0,0) tid=(383,0,0)
GPGPU-Sim uArch: Shader 2 finished CTA #1 (12711,0), 2 CTAs running
GPGPU-Sim uArch: core:  2, cta: 1 initialized @(12712,0)
GPGPU-Sim uArch: Shader 3 finished CTA #1 (12721,0), 2 CTAs running
GPGPU-Sim uArch: core:  3, cta: 1 initialized @(12722,0)
GPGPU-Sim PTX: 6800000 instructions simulated : ctaid=(102,0,0) tid=(249,0,0)
GPGPU-Sim uArch: Shader 1 finished CTA #1 (12831,0), 2 CTAs running
GPGPU-Sim uArch: core:  1, cta: 1 initialized @(12832,0)
GPGPU-Sim uArch: Shader 8 finished CTA #1 (12868,0), 2 CTAs running
GPGPU-Sim uArch: core:  8, cta: 1 initialized @(12869,0)
GPGPU-Sim uArch: Shader 11 finished CTA #1 (12892,0), 2 CTAs running
GPGPU-Sim uArch: core: 11, cta: 1 initialized @(12893,0)
GPGPU-Sim uArch: Shader 13 finished CTA #1 (12918,0), 2 CTAs running
GPGPU-Sim uArch: core: 13, cta: 1 initialized @(12919,0)
GPGPU-Sim uArch: Shader 10 finished CTA #1 (12929,0), 2 CTAs running
GPGPU-Sim uArch: core: 10, cta: 1 initialized @(12930,0)
GPGPU-Sim uArch: Shader 12 finished CTA #1 (12931,0), 2 CTAs running
GPGPU-Sim uArch: core: 12, cta: 1 initialized @(12932,0)
GPGPU-Sim uArch: Shader 4 finished CTA #1 (12947,0), 2 CTAs running
GPGPU-Sim uArch: core:  4, cta: 1 initialized @(12948,0)
GPGPU-Sim uArch: Shader 7 finished CTA #1 (12950,0), 2 CTAs running
GPGPU-Sim uArch: core:  7, cta: 1 initialized @(12951,0)
GPGPU-Sim uArch: Shader 5 finished CTA #1 (12952,0), 2 CTAs running
GPGPU-Sim uArch: core:  5, cta: 1 initialized @(12953,0)
GPGPU-Sim uArch: Shader 0 finished CTA #1 (12960,0), 2 CTAs running
GPGPU-Sim uArch: core:  0, cta: 1 initialized @(12961,0)
GPGPU-Sim PTX: 6900000 instructions simulated : ctaid=(113,0,0) tid=(452,0,0)
GPGPU-Sim uArch: cycles simulated: 13000  inst.: 6621581 (ipc=509.4) sim_rate=735731 (inst/sec) elapsed = 0:0:00:09 / Mon Jan 28 01:38:46 2019
GPGPU-Sim uArch: Shader 6 finished CTA #1 (13030,0), 2 CTAs running
GPGPU-Sim uArch: core:  6, cta: 1 initialized @(13031,0)
GPGPU-Sim uArch: Shader 14 finished CTA #1 (13050,0), 2 CTAs running
GPGPU-Sim uArch: core: 14, cta: 1 initialized @(13051,0)
GPGPU-Sim uArch: Shader 9 finished CTA #1 (13053,0), 2 CTAs running
GPGPU-Sim uArch: core:  9, cta: 1 initialized @(13054,0)
GPGPU-Sim PTX: 7000000 instructions simulated : ctaid=(78,0,0) tid=(130,0,0)
GPGPU-Sim PTX: 7100000 instructions simulated : ctaid=(119,0,0) tid=(481,0,0)
GPGPU-Sim PTX: 7200000 instructions simulated : ctaid=(77,0,0) tid=(204,0,0)
GPGPU-Sim PTX: 7300000 instructions simulated : ctaid=(91,0,0) tid=(86,0,0)
GPGPU-Sim PTX: 7400000 instructions simulated : ctaid=(111,0,0) tid=(77,0,0)
GPGPU-Sim PTX: 7500000 instructions simulated : ctaid=(93,0,0) tid=(308,0,0)
GPGPU-Sim PTX: 7600000 instructions simulated : ctaid=(82,0,0) tid=(452,0,0)
GPGPU-Sim uArch: cycles simulated: 14000  inst.: 7300055 (ipc=521.4) sim_rate=730005 (inst/sec) elapsed = 0:0:00:10 / Mon Jan 28 01:38:47 2019
GPGPU-Sim PTX: 7700000 instructions simulated : ctaid=(119,0,0) tid=(482,0,0)
GPGPU-Sim PTX: 7800000 instructions simulated : ctaid=(97,0,0) tid=(372,0,0)
GPGPU-Sim uArch: Shader 3 finished CTA #2 (14354,0), 2 CTAs running
GPGPU-Sim uArch: core:  3, cta: 2 initialized @(14355,0)
GPGPU-Sim uArch: Shader 2 finished CTA #2 (14365,0), 2 CTAs running
GPGPU-Sim uArch: core:  2, cta: 2 initialized @(14366,0)
GPGPU-Sim uArch: Shader 1 finished CTA #2 (14366,0), 2 CTAs running
GPGPU-Sim uArch: core:  1, cta: 2 initialized @(14367,0)
GPGPU-Sim uArch: Shader 9 finished CTA #2 (14368,0), 2 CTAs running
GPGPU-Sim uArch: core:  9, cta: 2 initialized @(14369,0)
GPGPU-Sim uArch: Shader 11 finished CTA #2 (14373,0), 2 CTAs running
GPGPU-Sim uArch: core: 11, cta: 2 initialized @(14374,0)
GPGPU-Sim uArch: Shader 4 finished CTA #2 (14388,0), 2 CTAs running
GPGPU-Sim uArch: core:  4, cta: 2 initialized @(14389,0)
GPGPU-Sim uArch: Shader 10 finished CTA #2 (14463,0), 2 CTAs running
GPGPU-Sim uArch: core: 10, cta: 2 initialized @(14464,0)
GPGPU-Sim uArch: Shader 14 finished CTA #2 (14467,0), 2 CTAs running
GPGPU-Sim uArch: core: 14, cta: 2 initialized @(14468,0)
GPGPU-Sim PTX: 7900000 instructions simulated : ctaid=(93,0,0) tid=(244,0,0)
GPGPU-Sim uArch: Shader 12 finished CTA #2 (14510,0), 2 CTAs running
GPGPU-Sim uArch: core: 12, cta: 2 initialized @(14511,0)
GPGPU-Sim uArch: Shader 7 finished CTA #2 (14541,0), 2 CTAs running
GPGPU-Sim uArch: core:  7, cta: 2 initialized @(14542,0)
GPGPU-Sim uArch: Shader 13 finished CTA #2 (14543,0), 2 CTAs running
GPGPU-Sim uArch: core: 13, cta: 2 initialized @(14544,0)
GPGPU-Sim uArch: Shader 0 finished CTA #2 (14550,0), 2 CTAs running
GPGPU-Sim uArch: core:  0, cta: 2 initialized @(14551,0)
GPGPU-Sim uArch: Shader 8 finished CTA #2 (14565,0), 2 CTAs running
GPGPU-Sim uArch: core:  8, cta: 2 initialized @(14566,0)
GPGPU-Sim uArch: Shader 5 finished CTA #2 (14598,0), 2 CTAs running
GPGPU-Sim uArch: core:  5, cta: 2 initialized @(14599,0)
GPGPU-Sim uArch: Shader 6 finished CTA #2 (14642,0), 2 CTAs running
GPGPU-Sim uArch: core:  6, cta: 2 initialized @(14643,0)
GPGPU-Sim PTX: 8000000 instructions simulated : ctaid=(132,0,0) tid=(11,0,0)
GPGPU-Sim PTX: 8100000 instructions simulated : ctaid=(91,0,0) tid=(83,0,0)
GPGPU-Sim PTX: 8200000 instructions simulated : ctaid=(96,0,0) tid=(430,0,0)
GPGPU-Sim uArch: cycles simulated: 15000  inst.: 7857492 (ipc=523.8) sim_rate=714317 (inst/sec) elapsed = 0:0:00:11 / Mon Jan 28 01:38:48 2019
GPGPU-Sim PTX: 8300000 instructions simulated : ctaid=(125,0,0) tid=(168,0,0)
GPGPU-Sim PTX: 8400000 instructions simulated : ctaid=(108,0,0) tid=(190,0,0)
GPGPU-Sim PTX: 8500000 instructions simulated : ctaid=(114,0,0) tid=(44,0,0)
GPGPU-Sim PTX: 8600000 instructions simulated : ctaid=(109,0,0) tid=(361,0,0)
GPGPU-Sim PTX: 8700000 instructions simulated : ctaid=(116,0,0) tid=(300,0,0)
GPGPU-Sim PTX: 8800000 instructions simulated : ctaid=(98,0,0) tid=(14,0,0)
GPGPU-Sim PTX: 8900000 instructions simulated : ctaid=(108,0,0) tid=(250,0,0)
GPGPU-Sim PTX: 9000000 instructions simulated : ctaid=(104,0,0) tid=(181,0,0)
GPGPU-Sim uArch: Shader 4 finished CTA #0 (16387,0), 2 CTAs running
GPGPU-Sim uArch: core:  4, cta: 0 initialized @(16388,0)
GPGPU-Sim uArch: Shader 8 finished CTA #0 (16481,0), 2 CTAs running
GPGPU-Sim uArch: core:  8, cta: 0 initialized @(16482,0)
GPGPU-Sim PTX: 9100000 instructions simulated : ctaid=(119,0,0) tid=(498,0,0)
GPGPU-Sim uArch: cycles simulated: 16500  inst.: 8714321 (ipc=528.1) sim_rate=726193 (inst/sec) elapsed = 0:0:00:12 / Mon Jan 28 01:38:49 2019
GPGPU-Sim uArch: Shader 3 finished CTA #0 (16517,0), 2 CTAs running
GPGPU-Sim uArch: core:  3, cta: 0 initialized @(16518,0)
GPGPU-Sim uArch: Shader 13 finished CTA #0 (16524,0), 2 CTAs running
GPGPU-Sim uArch: core: 13, cta: 0 initialized @(16525,0)
GPGPU-Sim uArch: Shader 12 finished CTA #0 (16587,0), 2 CTAs running
GPGPU-Sim uArch: core: 12, cta: 0 initialized @(16588,0)
GPGPU-Sim uArch: Shader 11 finished CTA #0 (16598,0), 2 CTAs running
GPGPU-Sim uArch: core: 11, cta: 0 initialized @(16599,0)
GPGPU-Sim uArch: Shader 14 finished CTA #0 (16612,0), 2 CTAs running
GPGPU-Sim uArch: core: 14, cta: 0 initialized @(16613,0)
GPGPU-Sim uArch: Shader 9 finished CTA #0 (16623,0), 2 CTAs running
GPGPU-Sim uArch: core:  9, cta: 0 initialized @(16624,0)
GPGPU-Sim uArch: Shader 6 finished CTA #0 (16626,0), 2 CTAs running
GPGPU-Sim uArch: core:  6, cta: 0 initialized @(16627,0)
GPGPU-Sim uArch: Shader 2 finished CTA #0 (16632,0), 2 CTAs running
GPGPU-Sim uArch: core:  2, cta: 0 initialized @(16633,0)
GPGPU-Sim uArch: Shader 1 finished CTA #0 (16637,0), 2 CTAs running
GPGPU-Sim uArch: core:  1, cta: 0 initialized @(16638,0)
GPGPU-Sim uArch: Shader 10 finished CTA #0 (16653,0), 2 CTAs running
GPGPU-Sim uArch: core: 10, cta: 0 initialized @(16654,0)
GPGPU-Sim uArch: Shader 5 finished CTA #0 (16678,0), 2 CTAs running
GPGPU-Sim uArch: core:  5, cta: 0 initialized @(16679,0)
GPGPU-Sim uArch: Shader 7 finished CTA #0 (16690,0), 2 CTAs running
GPGPU-Sim uArch: core:  7, cta: 0 initialized @(16691,0)
GPGPU-Sim PTX: 9200000 instructions simulated : ctaid=(122,0,0) tid=(8,0,0)
GPGPU-Sim uArch: Shader 0 finished CTA #0 (16769,0), 2 CTAs running
GPGPU-Sim uArch: core:  0, cta: 0 initialized @(16770,0)
GPGPU-Sim PTX: 9300000 instructions simulated : ctaid=(122,0,0) tid=(85,0,0)
GPGPU-Sim PTX: 9400000 instructions simulated : ctaid=(142,0,0) tid=(102,0,0)
GPGPU-Sim PTX: 9500000 instructions simulated : ctaid=(126,0,0) tid=(358,0,0)
GPGPU-Sim PTX: 9600000 instructions simulated : ctaid=(110,0,0) tid=(260,0,0)
GPGPU-Sim PTX: 9700000 instructions simulated : ctaid=(137,0,0) tid=(325,0,0)
GPGPU-Sim uArch: cycles simulated: 17500  inst.: 9297670 (ipc=531.3) sim_rate=715205 (inst/sec) elapsed = 0:0:00:13 / Mon Jan 28 01:38:50 2019
GPGPU-Sim PTX: 9800000 instructions simulated : ctaid=(136,0,0) tid=(91,0,0)
GPGPU-Sim PTX: 9900000 instructions simulated : ctaid=(109,0,0) tid=(20,0,0)
GPGPU-Sim PTX: 10000000 instructions simulated : ctaid=(107,0,0) tid=(32,0,0)
GPGPU-Sim PTX: 10100000 instructions simulated : ctaid=(139,0,0) tid=(223,0,0)
GPGPU-Sim uArch: Shader 3 finished CTA #1 (18305,0), 2 CTAs running
GPGPU-Sim uArch: core:  3, cta: 1 initialized @(18306,0)
GPGPU-Sim PTX: 10200000 instructions simulated : ctaid=(131,0,0) tid=(248,0,0)
GPGPU-Sim uArch: Shader 12 finished CTA #1 (18377,0), 2 CTAs running
GPGPU-Sim uArch: core: 12, cta: 1 initialized @(18378,0)
GPGPU-Sim uArch: Shader 9 finished CTA #1 (18384,0), 2 CTAs running
GPGPU-Sim uArch: core:  9, cta: 1 initialized @(18385,0)
GPGPU-Sim uArch: Shader 2 finished CTA #1 (18426,0), 2 CTAs running
GPGPU-Sim uArch: core:  2, cta: 1 initialized @(18427,0)
GPGPU-Sim uArch: Shader 1 finished CTA #1 (18427,0), 2 CTAs running
GPGPU-Sim uArch: core:  1, cta: 1 initialized @(18428,0)
GPGPU-Sim uArch: Shader 7 finished CTA #1 (18504,0), 2 CTAs running
GPGPU-Sim uArch: core:  7, cta: 1 initialized @(18505,0)
GPGPU-Sim uArch: Shader 11 finished CTA #1 (18511,0), 2 CTAs running
GPGPU-Sim uArch: core: 11, cta: 1 initialized @(18512,0)
GPGPU-Sim uArch: Shader 10 finished CTA #1 (18524,0), 2 CTAs running
GPGPU-Sim uArch: core: 10, cta: 1 initialized @(18525,0)
GPGPU-Sim uArch: Shader 0 finished CTA #1 (18533,0), 2 CTAs running
GPGPU-Sim uArch: core:  0, cta: 1 initialized @(18534,0)
GPGPU-Sim PTX: 10300000 instructions simulated : ctaid=(155,0,0) tid=(256,0,0)
GPGPU-Sim uArch: Shader 14 finished CTA #1 (18542,0), 2 CTAs running
GPGPU-Sim uArch: core: 14, cta: 1 initialized @(18543,0)
GPGPU-Sim uArch: Shader 8 finished CTA #1 (18548,0), 2 CTAs running
GPGPU-Sim uArch: core:  8, cta: 1 initialized @(18549,0)
GPGPU-Sim uArch: Shader 6 finished CTA #1 (18559,0), 2 CTAs running
GPGPU-Sim uArch: core:  6, cta: 1 initialized @(18560,0)
GPGPU-Sim uArch: Shader 13 finished CTA #1 (18561,0), 2 CTAs running
GPGPU-Sim uArch: core: 13, cta: 1 initialized @(18562,0)
GPGPU-Sim uArch: Shader 4 finished CTA #1 (18565,0), 2 CTAs running
GPGPU-Sim uArch: core:  4, cta: 1 initialized @(18566,0)
GPGPU-Sim uArch: Shader 5 finished CTA #1 (18573,0), 2 CTAs running
GPGPU-Sim uArch: core:  5, cta: 1 initialized @(18574,0)
GPGPU-Sim PTX: 10400000 instructions simulated : ctaid=(152,0,0) tid=(403,0,0)
GPGPU-Sim PTX: 10500000 instructions simulated : ctaid=(155,0,0) tid=(104,0,0)
GPGPU-Sim PTX: 10600000 instructions simulated : ctaid=(164,0,0) tid=(72,0,0)
GPGPU-Sim uArch: cycles simulated: 19000  inst.: 10158147 (ipc=534.6) sim_rate=725581 (inst/sec) elapsed = 0:0:00:14 / Mon Jan 28 01:38:51 2019
GPGPU-Sim PTX: 10700000 instructions simulated : ctaid=(138,0,0) tid=(502,0,0)
GPGPU-Sim PTX: 10800000 instructions simulated : ctaid=(142,0,0) tid=(189,0,0)
GPGPU-Sim PTX: 10900000 instructions simulated : ctaid=(161,0,0) tid=(50,0,0)
GPGPU-Sim PTX: 11000000 instructions simulated : ctaid=(157,0,0) tid=(331,0,0)
GPGPU-Sim PTX: 11100000 instructions simulated : ctaid=(123,0,0) tid=(487,0,0)
GPGPU-Sim PTX: 11200000 instructions simulated : ctaid=(156,0,0) tid=(448,0,0)
GPGPU-Sim uArch: cycles simulated: 20000  inst.: 10775394 (ipc=538.8) sim_rate=718359 (inst/sec) elapsed = 0:0:00:15 / Mon Jan 28 01:38:52 2019
GPGPU-Sim uArch: Shader 2 finished CTA #2 (20071,0), 2 CTAs running
GPGPU-Sim uArch: core:  2, cta: 2 initialized @(20072,0)
GPGPU-Sim PTX: 11300000 instructions simulated : ctaid=(135,0,0) tid=(472,0,0)
GPGPU-Sim uArch: Shader 11 finished CTA #2 (20169,0), 2 CTAs running
GPGPU-Sim uArch: core: 11, cta: 2 initialized @(20170,0)
GPGPU-Sim uArch: Shader 1 finished CTA #2 (20190,0), 2 CTAs running
GPGPU-Sim uArch: core:  1, cta: 2 initialized @(20191,0)
GPGPU-Sim uArch: Shader 10 finished CTA #2 (20193,0), 2 CTAs running
GPGPU-Sim uArch: core: 10, cta: 2 initialized @(20194,0)
GPGPU-Sim uArch: Shader 4 finished CTA #2 (20200,0), 2 CTAs running
GPGPU-Sim uArch: core:  4, cta: 2 initialized @(20201,0)
GPGPU-Sim uArch: Shader 3 finished CTA #2 (20235,0), 2 CTAs running
GPGPU-Sim uArch: core:  3, cta: 2 initialized @(20236,0)
GPGPU-Sim uArch: Shader 9 finished CTA #2 (20279,0), 2 CTAs running
GPGPU-Sim uArch: core:  9, cta: 2 initialized @(20280,0)
GPGPU-Sim PTX: 11400000 instructions simulated : ctaid=(143,0,0) tid=(285,0,0)
GPGPU-Sim uArch: Shader 14 finished CTA #2 (20334,0), 2 CTAs running
GPGPU-Sim uArch: core: 14, cta: 2 initialized @(20335,0)
GPGPU-Sim uArch: Shader 13 finished CTA #2 (20404,0), 2 CTAs running
GPGPU-Sim uArch: core: 13, cta: 2 initialized @(20405,0)
GPGPU-Sim uArch: Shader 6 finished CTA #2 (20424,0), 2 CTAs running
GPGPU-Sim uArch: core:  6, cta: 2 initialized @(20425,0)
GPGPU-Sim uArch: Shader 0 finished CTA #2 (20426,0), 2 CTAs running
GPGPU-Sim uArch: core:  0, cta: 2 initialized @(20427,0)
GPGPU-Sim uArch: Shader 5 finished CTA #2 (20437,0), 2 CTAs running
GPGPU-Sim uArch: core:  5, cta: 2 initialized @(20438,0)
GPGPU-Sim uArch: Shader 7 finished CTA #2 (20452,0), 2 CTAs running
GPGPU-Sim uArch: core:  7, cta: 2 initialized @(20453,0)
GPGPU-Sim uArch: Shader 12 finished CTA #2 (20456,0), 2 CTAs running
GPGPU-Sim uArch: core: 12, cta: 2 initialized @(20457,0)
GPGPU-Sim uArch: Shader 8 finished CTA #2 (20460,0), 2 CTAs running
GPGPU-Sim uArch: core:  8, cta: 2 initialized @(20461,0)
GPGPU-Sim PTX: 11500000 instructions simulated : ctaid=(179,0,0) tid=(323,0,0)
GPGPU-Sim PTX: 11600000 instructions simulated : ctaid=(156,0,0) tid=(253,0,0)
GPGPU-Sim PTX: 11700000 instructions simulated : ctaid=(175,0,0) tid=(252,0,0)
GPGPU-Sim PTX: 11800000 instructions simulated : ctaid=(163,0,0) tid=(154,0,0)
GPGPU-Sim uArch: cycles simulated: 21000  inst.: 11337497 (ipc=539.9) sim_rate=708593 (inst/sec) elapsed = 0:0:00:16 / Mon Jan 28 01:38:53 2019
GPGPU-Sim PTX: 11900000 instructions simulated : ctaid=(169,0,0) tid=(429,0,0)
GPGPU-Sim PTX: 12000000 instructions simulated : ctaid=(175,0,0) tid=(315,0,0)
GPGPU-Sim PTX: 12100000 instructions simulated : ctaid=(144,0,0) tid=(451,0,0)
GPGPU-Sim PTX: 12200000 instructions simulated : ctaid=(143,0,0) tid=(19,0,0)
GPGPU-Sim PTX: 12300000 instructions simulated : ctaid=(171,0,0) tid=(237,0,0)
GPGPU-Sim PTX: 12400000 instructions simulated : ctaid=(148,0,0) tid=(493,0,0)
GPGPU-Sim uArch: Shader 4 finished CTA #0 (22008,0), 2 CTAs running
GPGPU-Sim uArch: core:  4, cta: 0 initialized @(22009,0)
GPGPU-Sim uArch: Shader 2 finished CTA #0 (22039,0), 2 CTAs running
GPGPU-Sim uArch: core:  2, cta: 0 initialized @(22040,0)
GPGPU-Sim uArch: Shader 11 finished CTA #0 (22081,0), 2 CTAs running
GPGPU-Sim uArch: core: 11, cta: 0 initialized @(22082,0)
GPGPU-Sim uArch: Shader 3 finished CTA #0 (22085,0), 2 CTAs running
GPGPU-Sim uArch: core:  3, cta: 0 initialized @(22086,0)
GPGPU-Sim PTX: 12500000 instructions simulated : ctaid=(175,0,0) tid=(280,0,0)
GPGPU-Sim uArch: Shader 8 finished CTA #0 (22120,0), 2 CTAs running
GPGPU-Sim uArch: core:  8, cta: 0 initialized @(22121,0)
GPGPU-Sim uArch: Shader 13 finished CTA #0 (22214,0), 2 CTAs running
GPGPU-Sim uArch: core: 13, cta: 0 initialized @(22215,0)
GPGPU-Sim uArch: Shader 12 finished CTA #0 (22234,0), 2 CTAs running
GPGPU-Sim uArch: core: 12, cta: 0 initialized @(22235,0)
GPGPU-Sim uArch: Shader 1 finished CTA #0 (22242,0), 2 CTAs running
GPGPU-Sim uArch: core:  1, cta: 0 initialized @(22243,0)
GPGPU-Sim uArch: Shader 7 finished CTA #0 (22275,0), 2 CTAs running
GPGPU-Sim uArch: core:  7, cta: 0 initialized @(22276,0)
GPGPU-Sim uArch: Shader 14 finished CTA #0 (22296,0), 2 CTAs running
GPGPU-Sim uArch: core: 14, cta: 0 initialized @(22297,0)
GPGPU-Sim PTX: 12600000 instructions simulated : ctaid=(170,0,0) tid=(25,0,0)
GPGPU-Sim uArch: Shader 10 finished CTA #0 (22320,0), 2 CTAs running
GPGPU-Sim uArch: core: 10, cta: 0 initialized @(22321,0)
GPGPU-Sim uArch: Shader 9 finished CTA #0 (22340,0), 2 CTAs running
GPGPU-Sim uArch: core:  9, cta: 0 initialized @(22341,0)
GPGPU-Sim uArch: Shader 6 finished CTA #0 (22361,0), 2 CTAs running
GPGPU-Sim uArch: core:  6, cta: 0 initialized @(22362,0)
GPGPU-Sim uArch: Shader 0 finished CTA #0 (22374,0), 2 CTAs running
GPGPU-Sim uArch: core:  0, cta: 0 initialized @(22375,0)
GPGPU-Sim uArch: Shader 5 finished CTA #0 (22438,0), 2 CTAs running
GPGPU-Sim uArch: core:  5, cta: 0 initialized @(22439,0)
GPGPU-Sim PTX: 12700000 instructions simulated : ctaid=(151,0,0) tid=(444,0,0)
GPGPU-Sim uArch: cycles simulated: 22500  inst.: 12193008 (ipc=541.9) sim_rate=717235 (inst/sec) elapsed = 0:0:00:17 / Mon Jan 28 01:38:54 2019
GPGPU-Sim PTX: 12800000 instructions simulated : ctaid=(167,0,0) tid=(378,0,0)
GPGPU-Sim PTX: 12900000 instructions simulated : ctaid=(177,0,0) tid=(442,0,0)
GPGPU-Sim PTX: 13000000 instructions simulated : ctaid=(170,0,0) tid=(4,0,0)
GPGPU-Sim PTX: 13100000 instructions simulated : ctaid=(159,0,0) tid=(9,0,0)
GPGPU-Sim PTX: 13200000 instructions simulated : ctaid=(152,0,0) tid=(363,0,0)
GPGPU-Sim PTX: 13300000 instructions simulated : ctaid=(169,0,0) tid=(58,0,0)
GPGPU-Sim uArch: cycles simulated: 23500  inst.: 12812236 (ipc=545.2) sim_rate=711790 (inst/sec) elapsed = 0:0:00:18 / Mon Jan 28 01:38:55 2019
GPGPU-Sim PTX: 13400000 instructions simulated : ctaid=(175,0,0) tid=(400,0,0)
GPGPU-Sim PTX: 13500000 instructions simulated : ctaid=(156,0,0) tid=(277,0,0)
GPGPU-Sim PTX: 13600000 instructions simulated : ctaid=(192,0,0) tid=(353,0,0)
GPGPU-Sim uArch: Shader 1 finished CTA #1 (24001,0), 2 CTAs running
GPGPU-Sim uArch: core:  1, cta: 1 initialized @(24002,0)
GPGPU-Sim uArch: Shader 2 finished CTA #1 (24008,0), 2 CTAs running
GPGPU-Sim uArch: core:  2, cta: 1 initialized @(24009,0)
GPGPU-Sim uArch: Shader 7 finished CTA #1 (24082,0), 2 CTAs running
GPGPU-Sim uArch: core:  7, cta: 1 initialized @(24083,0)
GPGPU-Sim uArch: Shader 3 finished CTA #1 (24084,0), 2 CTAs running
GPGPU-Sim uArch: core:  3, cta: 1 initialized @(24085,0)
GPGPU-Sim uArch: Shader 10 finished CTA #1 (24111,0), 2 CTAs running
GPGPU-Sim uArch: core: 10, cta: 1 initialized @(24112,0)
GPGPU-Sim uArch: Shader 12 finished CTA #1 (24119,0), 2 CTAs running
GPGPU-Sim uArch: core: 12, cta: 1 initialized @(24120,0)
GPGPU-Sim PTX: 13700000 instructions simulated : ctaid=(174,0,0) tid=(393,0,0)
GPGPU-Sim uArch: Shader 0 finished CTA #1 (24135,0), 2 CTAs running
GPGPU-Sim uArch: core:  0, cta: 1 initialized @(24136,0)
GPGPU-Sim uArch: Shader 9 finished CTA #1 (24138,0), 2 CTAs running
GPGPU-Sim uArch: core:  9, cta: 1 initialized @(24139,0)
GPGPU-Sim uArch: Shader 14 finished CTA #1 (24148,0), 2 CTAs running
GPGPU-Sim uArch: core: 14, cta: 1 initialized @(24149,0)
GPGPU-Sim uArch: Shader 11 finished CTA #1 (24155,0), 2 CTAs running
GPGPU-Sim uArch: core: 11, cta: 1 initialized @(24156,0)
GPGPU-Sim uArch: Shader 4 finished CTA #1 (24170,0), 2 CTAs running
GPGPU-Sim uArch: core:  4, cta: 1 initialized @(24171,0)
GPGPU-Sim uArch: Shader 6 finished CTA #1 (24183,0), 2 CTAs running
GPGPU-Sim uArch: core:  6, cta: 1 initialized @(24184,0)
GPGPU-Sim uArch: Shader 13 finished CTA #1 (24199,0), 2 CTAs running
GPGPU-Sim uArch: core: 13, cta: 1 initialized @(24200,0)
GPGPU-Sim uArch: Shader 8 finished CTA #1 (24201,0), 2 CTAs running
GPGPU-Sim uArch: core:  8, cta: 1 initialized @(24202,0)
GPGPU-Sim uArch: Shader 5 finished CTA #1 (24284,0), 2 CTAs running
GPGPU-Sim uArch: core:  5, cta: 1 initialized @(24285,0)
GPGPU-Sim PTX: 13800000 instructions simulated : ctaid=(171,0,0) tid=(132,0,0)
GPGPU-Sim PTX: 13900000 instructions simulated : ctaid=(183,0,0) tid=(504,0,0)
GPGPU-Sim uArch: cycles simulated: 24500  inst.: 13355780 (ipc=545.1) sim_rate=702935 (inst/sec) elapsed = 0:0:00:19 / Mon Jan 28 01:38:56 2019
GPGPU-Sim PTX: 14000000 instructions simulated : ctaid=(166,0,0) tid=(158,0,0)
GPGPU-Sim PTX: 14100000 instructions simulated : ctaid=(179,0,0) tid=(247,0,0)
GPGPU-Sim PTX: 14200000 instructions simulated : ctaid=(206,0,0) tid=(2,0,0)
GPGPU-Sim PTX: 14300000 instructions simulated : ctaid=(178,0,0) tid=(332,0,0)
GPGPU-Sim PTX: 14400000 instructions simulated : ctaid=(180,0,0) tid=(108,0,0)
GPGPU-Sim PTX: 14500000 instructions simulated : ctaid=(204,0,0) tid=(325,0,0)
GPGPU-Sim PTX: 14600000 instructions simulated : ctaid=(186,0,0) tid=(135,0,0)
GPGPU-Sim PTX: 14700000 instructions simulated : ctaid=(174,0,0) tid=(66,0,0)
GPGPU-Sim uArch: Shader 2 finished CTA #2 (25741,0), 2 CTAs running
GPGPU-Sim uArch: core:  2, cta: 2 initialized @(25742,0)
GPGPU-Sim uArch: Shader 3 finished CTA #2 (25795,0), 2 CTAs running
GPGPU-Sim uArch: core:  3, cta: 2 initialized @(25796,0)
GPGPU-Sim uArch: Shader 4 finished CTA #2 (25809,0), 2 CTAs running
GPGPU-Sim uArch: core:  4, cta: 2 initialized @(25810,0)
GPGPU-Sim PTX: 14800000 instructions simulated : ctaid=(193,0,0) tid=(364,0,0)
GPGPU-Sim uArch: Shader 10 finished CTA #2 (25911,0), 2 CTAs running
GPGPU-Sim uArch: core: 10, cta: 2 initialized @(25912,0)
GPGPU-Sim uArch: Shader 11 finished CTA #2 (25921,0), 2 CTAs running
GPGPU-Sim uArch: core: 11, cta: 2 initialized @(25922,0)
GPGPU-Sim uArch: Shader 1 finished CTA #2 (25981,0), 2 CTAs running
GPGPU-Sim uArch: core:  1, cta: 2 initialized @(25982,0)
GPGPU-Sim uArch: Shader 14 finished CTA #2 (25987,0), 2 CTAs running
GPGPU-Sim uArch: core: 14, cta: 2 initialized @(25988,0)
GPGPU-Sim uArch: cycles simulated: 26000  inst.: 14223013 (ipc=547.0) sim_rate=711150 (inst/sec) elapsed = 0:0:00:20 / Mon Jan 28 01:38:57 2019
GPGPU-Sim uArch: Shader 0 finished CTA #2 (26004,0), 2 CTAs running
GPGPU-Sim uArch: core:  0, cta: 2 initialized @(26005,0)
GPGPU-Sim uArch: Shader 8 finished CTA #2 (26031,0), 2 CTAs running
GPGPU-Sim uArch: core:  8, cta: 2 initialized @(26032,0)
GPGPU-Sim uArch: Shader 12 finished CTA #2 (26076,0), 2 CTAs running
GPGPU-Sim uArch: core: 12, cta: 2 initialized @(26077,0)
GPGPU-Sim uArch: Shader 9 finished CTA #2 (26091,0), 2 CTAs running
GPGPU-Sim uArch: core:  9, cta: 2 initialized @(26092,0)
GPGPU-Sim uArch: Shader 5 finished CTA #2 (26106,0), 2 CTAs running
GPGPU-Sim uArch: core:  5, cta: 2 initialized @(26107,0)
GPGPU-Sim uArch: Shader 7 finished CTA #2 (26113,0), 2 CTAs running
GPGPU-Sim uArch: core:  7, cta: 2 initialized @(26114,0)
GPGPU-Sim PTX: 14900000 instructions simulated : ctaid=(217,0,0) tid=(175,0,0)
GPGPU-Sim uArch: Shader 6 finished CTA #2 (26149,0), 2 CTAs running
GPGPU-Sim uArch: core:  6, cta: 2 initialized @(26150,0)
GPGPU-Sim uArch: Shader 13 finished CTA #2 (26219,0), 2 CTAs running
GPGPU-Sim uArch: core: 13, cta: 2 initialized @(26220,0)
GPGPU-Sim PTX: 15000000 instructions simulated : ctaid=(205,0,0) tid=(147,0,0)
GPGPU-Sim PTX: 15100000 instructions simulated : ctaid=(198,0,0) tid=(376,0,0)
GPGPU-Sim PTX: 15200000 instructions simulated : ctaid=(193,0,0) tid=(433,0,0)
GPGPU-Sim PTX: 15300000 instructions simulated : ctaid=(193,0,0) tid=(372,0,0)
GPGPU-Sim PTX: 15400000 instructions simulated : ctaid=(183,0,0) tid=(270,0,0)
GPGPU-Sim uArch: cycles simulated: 27000  inst.: 14831177 (ipc=549.3) sim_rate=706246 (inst/sec) elapsed = 0:0:00:21 / Mon Jan 28 01:38:58 2019
GPGPU-Sim PTX: 15500000 instructions simulated : ctaid=(180,0,0) tid=(280,0,0)
GPGPU-Sim PTX: 15600000 instructions simulated : ctaid=(208,0,0) tid=(283,0,0)
GPGPU-Sim PTX: 15700000 instructions simulated : ctaid=(216,0,0) tid=(466,0,0)
GPGPU-Sim PTX: 15800000 instructions simulated : ctaid=(188,0,0) tid=(290,0,0)
GPGPU-Sim PTX: 15900000 instructions simulated : ctaid=(198,0,0) tid=(484,0,0)
GPGPU-Sim uArch: Shader 2 finished CTA #0 (27706,0), 2 CTAs running
GPGPU-Sim uArch: core:  2, cta: 0 initialized @(27707,0)
GPGPU-Sim uArch: Shader 1 finished CTA #0 (27746,0), 2 CTAs running
GPGPU-Sim uArch: core:  1, cta: 0 initialized @(27747,0)
GPGPU-Sim uArch: Shader 4 finished CTA #0 (27762,0), 2 CTAs running
GPGPU-Sim uArch: core:  4, cta: 0 initialized @(27763,0)
GPGPU-Sim uArch: Shader 11 finished CTA #0 (27772,0), 2 CTAs running
GPGPU-Sim uArch: core: 11, cta: 0 initialized @(27773,0)
GPGPU-Sim uArch: Shader 10 finished CTA #0 (27801,0), 2 CTAs running
GPGPU-Sim uArch: core: 10, cta: 0 initialized @(27802,0)
GPGPU-Sim uArch: Shader 3 finished CTA #0 (27841,0), 2 CTAs running
GPGPU-Sim uArch: core:  3, cta: 0 initialized @(27842,0)
GPGPU-Sim uArch: Shader 8 finished CTA #0 (27857,0), 2 CTAs running
GPGPU-Sim uArch: core:  8, cta: 0 initialized @(27858,0)
GPGPU-Sim uArch: Shader 7 finished CTA #0 (27873,0), 2 CTAs running
GPGPU-Sim uArch: core:  7, cta: 0 initialized @(27874,0)
GPGPU-Sim uArch: Shader 12 finished CTA #0 (27881,0), 2 CTAs running
GPGPU-Sim uArch: core: 12, cta: 0 initialized @(27882,0)
GPGPU-Sim uArch: Shader 9 finished CTA #0 (27890,0), 2 CTAs running
GPGPU-Sim uArch: core:  9, cta: 0 initialized @(27891,0)
GPGPU-Sim uArch: Shader 13 finished CTA #0 (27905,0), 2 CTAs running
GPGPU-Sim uArch: core: 13, cta: 0 initialized @(27906,0)
GPGPU-Sim PTX: 16000000 instructions simulated : ctaid=(207,0,0) tid=(152,0,0)
GPGPU-Sim uArch: Shader 14 finished CTA #0 (27990,0), 2 CTAs running
GPGPU-Sim uArch: core: 14, cta: 0 initialized @(27991,0)
GPGPU-Sim uArch: cycles simulated: 28000  inst.: 15378377 (ipc=549.2) sim_rate=699017 (inst/sec) elapsed = 0:0:00:22 / Mon Jan 28 01:38:59 2019
GPGPU-Sim uArch: Shader 0 finished CTA #0 (28006,0), 2 CTAs running
GPGPU-Sim uArch: core:  0, cta: 0 initialized @(28007,0)
GPGPU-Sim uArch: Shader 6 finished CTA #0 (28031,0), 2 CTAs running
GPGPU-Sim uArch: core:  6, cta: 0 initialized @(28032,0)
GPGPU-Sim PTX: 16100000 instructions simulated : ctaid=(218,0,0) tid=(96,0,0)
GPGPU-Sim uArch: Shader 5 finished CTA #0 (28100,0), 2 CTAs running
GPGPU-Sim uArch: core:  5, cta: 0 initialized @(28101,0)
GPGPU-Sim PTX: 16200000 instructions simulated : ctaid=(212,0,0) tid=(133,0,0)
GPGPU-Sim PTX: 16300000 instructions simulated : ctaid=(221,0,0) tid=(376,0,0)
GPGPU-Sim PTX: 16400000 instructions simulated : ctaid=(225,0,0) tid=(39,0,0)
GPGPU-Sim PTX: 16500000 instructions simulated : ctaid=(204,0,0) tid=(112,0,0)
GPGPU-Sim PTX: 16600000 instructions simulated : ctaid=(215,0,0) tid=(181,0,0)
GPGPU-Sim PTX: 16700000 instructions simulated : ctaid=(236,0,0) tid=(410,0,0)
GPGPU-Sim PTX: 16800000 instructions simulated : ctaid=(221,0,0) tid=(479,0,0)
GPGPU-Sim PTX: 16900000 instructions simulated : ctaid=(215,0,0) tid=(232,0,0)
GPGPU-Sim uArch: cycles simulated: 29500  inst.: 16293957 (ipc=552.3) sim_rate=708432 (inst/sec) elapsed = 0:0:00:23 / Mon Jan 28 01:39:00 2019
GPGPU-Sim PTX: 17000000 instructions simulated : ctaid=(229,0,0) tid=(254,0,0)
GPGPU-Sim uArch: Shader 3 finished CTA #1 (29604,0), 2 CTAs running
GPGPU-Sim uArch: core:  3, cta: 1 initialized @(29605,0)
GPGPU-Sim uArch: Shader 11 finished CTA #1 (29621,0), 2 CTAs running
GPGPU-Sim uArch: core: 11, cta: 1 initialized @(29622,0)
GPGPU-Sim uArch: Shader 7 finished CTA #1 (29668,0), 2 CTAs running
GPGPU-Sim uArch: core:  7, cta: 1 initialized @(29669,0)
GPGPU-Sim uArch: Shader 0 finished CTA #1 (29723,0), 2 CTAs running
GPGPU-Sim uArch: core:  0, cta: 1 initialized @(29724,0)
GPGPU-Sim PTX: 17100000 instructions simulated : ctaid=(210,0,0) tid=(109,0,0)
GPGPU-Sim uArch: Shader 2 finished CTA #1 (29739,0), 2 CTAs running
GPGPU-Sim uArch: core:  2, cta: 1 initialized @(29740,0)
GPGPU-Sim uArch: Shader 14 finished CTA #1 (29743,0), 2 CTAs running
GPGPU-Sim uArch: core: 14, cta: 1 initialized @(29744,0)
GPGPU-Sim uArch: Shader 10 finished CTA #1 (29754,0), 2 CTAs running
GPGPU-Sim uArch: core: 10, cta: 1 initialized @(29755,0)
GPGPU-Sim uArch: Shader 1 finished CTA #1 (29761,0), 2 CTAs running
GPGPU-Sim uArch: core:  1, cta: 1 initialized @(29762,0)
GPGPU-Sim uArch: Shader 4 finished CTA #1 (29769,0), 2 CTAs running
GPGPU-Sim uArch: core:  4, cta: 1 initialized @(29770,0)
GPGPU-Sim uArch: Shader 13 finished CTA #1 (29777,0), 2 CTAs running
GPGPU-Sim uArch: core: 13, cta: 1 initialized @(29778,0)
GPGPU-Sim uArch: Shader 6 finished CTA #1 (29784,0), 2 CTAs running
GPGPU-Sim uArch: core:  6, cta: 1 initialized @(29785,0)
GPGPU-Sim uArch: Shader 12 finished CTA #1 (29810,0), 2 CTAs running
GPGPU-Sim uArch: core: 12, cta: 1 initialized @(29811,0)
GPGPU-Sim uArch: Shader 8 finished CTA #1 (29842,0), 2 CTAs running
GPGPU-Sim uArch: core:  8, cta: 1 initialized @(29843,0)
GPGPU-Sim uArch: Shader 5 finished CTA #1 (29874,0), 2 CTAs running
GPGPU-Sim uArch: core:  5, cta: 1 initialized @(29875,0)
GPGPU-Sim uArch: Shader 9 finished CTA #1 (29900,0), 2 CTAs running
GPGPU-Sim uArch: core:  9, cta: 1 initialized @(29901,0)
GPGPU-Sim PTX: 17200000 instructions simulated : ctaid=(253,0,0) tid=(4,0,0)
GPGPU-Sim PTX: 17300000 instructions simulated : ctaid=(244,0,0) tid=(109,0,0)
GPGPU-Sim PTX: 17400000 instructions simulated : ctaid=(238,0,0) tid=(152,0,0)
GPGPU-Sim PTX: 17500000 instructions simulated : ctaid=(253,0,0) tid=(268,0,0)
GPGPU-Sim uArch: cycles simulated: 30500  inst.: 16855854 (ipc=552.7) sim_rate=702327 (inst/sec) elapsed = 0:0:00:24 / Mon Jan 28 01:39:01 2019
GPGPU-Sim PTX: 17600000 instructions simulated : ctaid=(234,0,0) tid=(312,0,0)
GPGPU-Sim PTX: 17700000 instructions simulated : ctaid=(225,0,0) tid=(212,0,0)
GPGPU-Sim PTX: 17800000 instructions simulated : ctaid=(252,0,0) tid=(294,0,0)
GPGPU-Sim PTX: 17900000 instructions simulated : ctaid=(238,0,0) tid=(43,0,0)
GPGPU-Sim PTX: 18000000 instructions simulated : ctaid=(244,0,0) tid=(313,0,0)
GPGPU-Sim PTX: 18100000 instructions simulated : ctaid=(252,0,0) tid=(179,0,0)
GPGPU-Sim uArch: Shader 2 finished CTA #2 (31430,0), 2 CTAs running
GPGPU-Sim uArch: core:  2, cta: 2 initialized @(31431,0)
GPGPU-Sim uArch: Shader 4 finished CTA #2 (31437,0), 2 CTAs running
GPGPU-Sim uArch: core:  4, cta: 2 initialized @(31438,0)
GPGPU-Sim uArch: Shader 3 finished CTA #2 (31472,0), 2 CTAs running
GPGPU-Sim uArch: core:  3, cta: 2 initialized @(31473,0)
GPGPU-Sim uArch: cycles simulated: 31500  inst.: 17440113 (ipc=553.7) sim_rate=697604 (inst/sec) elapsed = 0:0:00:25 / Mon Jan 28 01:39:02 2019
GPGPU-Sim PTX: 18200000 instructions simulated : ctaid=(224,0,0) tid=(259,0,0)
GPGPU-Sim uArch: Shader 11 finished CTA #2 (31555,0), 2 CTAs running
GPGPU-Sim uArch: core: 11, cta: 2 initialized @(31556,0)
GPGPU-Sim uArch: Shader 10 finished CTA #2 (31565,0), 2 CTAs running
GPGPU-Sim uArch: core: 10, cta: 2 initialized @(31566,0)
GPGPU-Sim uArch: Shader 14 finished CTA #2 (31611,0), 2 CTAs running
GPGPU-Sim uArch: core: 14, cta: 2 initialized @(31612,0)
GPGPU-Sim uArch: Shader 8 finished CTA #2 (31634,0), 2 CTAs running
GPGPU-Sim uArch: core:  8, cta: 2 initialized @(31635,0)
GPGPU-Sim uArch: Shader 0 finished CTA #2 (31638,0), 2 CTAs running
GPGPU-Sim uArch: core:  0, cta: 2 initialized @(31639,0)
GPGPU-Sim uArch: Shader 5 finished CTA #2 (31690,0), 2 CTAs running
GPGPU-Sim uArch: core:  5, cta: 2 initialized @(31691,0)
GPGPU-Sim uArch: Shader 1 finished CTA #2 (31712,0), 2 CTAs running
GPGPU-Sim uArch: core:  1, cta: 2 initialized @(31713,0)
GPGPU-Sim PTX: 18300000 instructions simulated : ctaid=(261,0,0) tid=(219,0,0)
GPGPU-Sim uArch: Shader 6 finished CTA #2 (31748,0), 2 CTAs running
GPGPU-Sim uArch: core:  6, cta: 2 initialized @(31749,0)
GPGPU-Sim uArch: Shader 7 finished CTA #2 (31761,0), 2 CTAs running
GPGPU-Sim uArch: core:  7, cta: 2 initialized @(31762,0)
GPGPU-Sim uArch: Shader 9 finished CTA #2 (31778,0), 2 CTAs running
GPGPU-Sim uArch: core:  9, cta: 2 initialized @(31779,0)
GPGPU-Sim uArch: Shader 12 finished CTA #2 (31826,0), 2 CTAs running
GPGPU-Sim uArch: core: 12, cta: 2 initialized @(31827,0)
GPGPU-Sim PTX: 18400000 instructions simulated : ctaid=(265,0,0) tid=(199,0,0)
GPGPU-Sim uArch: Shader 13 finished CTA #2 (31929,0), 2 CTAs running
GPGPU-Sim uArch: core: 13, cta: 2 initialized @(31930,0)
GPGPU-Sim PTX: 18500000 instructions simulated : ctaid=(248,0,0) tid=(356,0,0)
GPGPU-Sim PTX: 18600000 instructions simulated : ctaid=(246,0,0) tid=(251,0,0)
GPGPU-Sim PTX: 18700000 instructions simulated : ctaid=(225,0,0) tid=(91,0,0)
GPGPU-Sim uArch: cycles simulated: 32500  inst.: 18013191 (ipc=554.3) sim_rate=692815 (inst/sec) elapsed = 0:0:00:26 / Mon Jan 28 01:39:03 2019
GPGPU-Sim PTX: 18800000 instructions simulated : ctaid=(259,0,0) tid=(422,0,0)
GPGPU-Sim PTX: 18900000 instructions simulated : ctaid=(260,0,0) tid=(427,0,0)
GPGPU-Sim PTX: 19000000 instructions simulated : ctaid=(267,0,0) tid=(286,0,0)
GPGPU-Sim PTX: 19100000 instructions simulated : ctaid=(259,0,0) tid=(499,0,0)
GPGPU-Sim PTX: 19200000 instructions simulated : ctaid=(227,0,0) tid=(406,0,0)
GPGPU-Sim PTX: 19300000 instructions simulated : ctaid=(238,0,0) tid=(417,0,0)
GPGPU-Sim uArch: Shader 2 finished CTA #0 (33380,0), 2 CTAs running
GPGPU-Sim uArch: core:  2, cta: 0 initialized @(33381,0)
GPGPU-Sim uArch: Shader 1 finished CTA #0 (33491,0), 2 CTAs running
GPGPU-Sim uArch: core:  1, cta: 0 initialized @(33492,0)
GPGPU-Sim PTX: 19400000 instructions simulated : ctaid=(265,0,0) tid=(450,0,0)
GPGPU-Sim uArch: Shader 10 finished CTA #0 (33546,0), 2 CTAs running
GPGPU-Sim uArch: core: 10, cta: 0 initialized @(33547,0)
GPGPU-Sim uArch: Shader 12 finished CTA #0 (33554,0), 2 CTAs running
GPGPU-Sim uArch: core: 12, cta: 0 initialized @(33555,0)
GPGPU-Sim uArch: Shader 7 finished CTA #0 (33561,0), 2 CTAs running
GPGPU-Sim uArch: core:  7, cta: 0 initialized @(33562,0)
GPGPU-Sim uArch: Shader 3 finished CTA #0 (33576,0), 2 CTAs running
GPGPU-Sim uArch: core:  3, cta: 0 initialized @(33577,0)
GPGPU-Sim uArch: Shader 4 finished CTA #0 (33593,0), 2 CTAs running
GPGPU-Sim uArch: Shader 9 finished CTA #0 (33593,0), 2 CTAs running
GPGPU-Sim uArch: core:  4, cta: 0 initialized @(33594,0)
GPGPU-Sim uArch: core:  9, cta: 0 initialized @(33594,0)
GPGPU-Sim uArch: Shader 13 finished CTA #0 (33626,0), 2 CTAs running
GPGPU-Sim uArch: core: 13, cta: 0 initialized @(33627,0)
GPGPU-Sim uArch: Shader 11 finished CTA #0 (33634,0), 2 CTAs running
GPGPU-Sim uArch: core: 11, cta: 0 initialized @(33635,0)
GPGPU-Sim uArch: Shader 8 finished CTA #0 (33657,0), 2 CTAs running
GPGPU-Sim uArch: core:  8, cta: 0 initialized @(33658,0)
GPGPU-Sim uArch: Shader 5 finished CTA #0 (33678,0), 2 CTAs running
GPGPU-Sim uArch: core:  5, cta: 0 initialized @(33679,0)
GPGPU-Sim uArch: Shader 14 finished CTA #0 (33691,0), 2 CTAs running
GPGPU-Sim uArch: core: 14, cta: 0 initialized @(33692,0)
GPGPU-Sim uArch: Shader 6 finished CTA #0 (33693,0), 2 CTAs running
GPGPU-Sim uArch: core:  6, cta: 0 initialized @(33694,0)
GPGPU-Sim uArch: Shader 0 finished CTA #0 (33715,0), 2 CTAs running
GPGPU-Sim PTX: 19500000 instructions simulated : ctaid=(242,0,0) tid=(433,0,0)
GPGPU-Sim uArch: core:  0, cta: 0 initialized @(33716,0)
GPGPU-Sim PTX: 19600000 instructions simulated : ctaid=(264,0,0) tid=(4,0,0)
GPGPU-Sim uArch: cycles simulated: 34000  inst.: 18869571 (ipc=555.0) sim_rate=698873 (inst/sec) elapsed = 0:0:00:27 / Mon Jan 28 01:39:04 2019
GPGPU-Sim PTX: 19700000 instructions simulated : ctaid=(241,0,0) tid=(23,0,0)
GPGPU-Sim PTX: 19800000 instructions simulated : ctaid=(284,0,0) tid=(320,0,0)
GPGPU-Sim PTX: 19900000 instructions simulated : ctaid=(276,0,0) tid=(176,0,0)
GPGPU-Sim PTX: 20000000 instructions simulated : ctaid=(252,0,0) tid=(456,0,0)
GPGPU-Sim PTX: 20100000 instructions simulated : ctaid=(282,0,0) tid=(259,0,0)
GPGPU-Sim PTX: 20200000 instructions simulated : ctaid=(248,0,0) tid=(48,0,0)
GPGPU-Sim PTX: 20300000 instructions simulated : ctaid=(243,0,0) tid=(174,0,0)
GPGPU-Sim uArch: cycles simulated: 35000  inst.: 19484469 (ipc=556.7) sim_rate=695873 (inst/sec) elapsed = 0:0:00:28 / Mon Jan 28 01:39:05 2019
GPGPU-Sim PTX: 20400000 instructions simulated : ctaid=(270,0,0) tid=(510,0,0)
GPGPU-Sim uArch: Shader 2 finished CTA #1 (35296,0), 2 CTAs running
GPGPU-Sim uArch: core:  2, cta: 1 initialized @(35297,0)
GPGPU-Sim uArch: Shader 1 finished CTA #1 (35331,0), 2 CTAs running
GPGPU-Sim PTX: 20500000 instructions simulated : ctaid=(268,0,0) tid=(150,0,0)
GPGPU-Sim uArch: core:  1, cta: 1 initialized @(35332,0)
GPGPU-Sim uArch: Shader 10 finished CTA #1 (35347,0), 2 CTAs running
GPGPU-Sim uArch: core: 10, cta: 1 initialized @(35348,0)
GPGPU-Sim uArch: Shader 3 finished CTA #1 (35377,0), 2 CTAs running
GPGPU-Sim uArch: core:  3, cta: 1 initialized @(35378,0)
GPGPU-Sim uArch: Shader 11 finished CTA #1 (35378,0), 2 CTAs running
GPGPU-Sim uArch: core: 11, cta: 1 initialized @(35379,0)
GPGPU-Sim uArch: Shader 14 finished CTA #1 (35392,0), 2 CTAs running
GPGPU-Sim uArch: core: 14, cta: 1 initialized @(35393,0)
GPGPU-Sim uArch: Shader 8 finished CTA #1 (35405,0), 2 CTAs running
GPGPU-Sim uArch: core:  8, cta: 1 initialized @(35406,0)
GPGPU-Sim uArch: Shader 12 finished CTA #1 (35407,0), 2 CTAs running
GPGPU-Sim uArch: core: 12, cta: 1 initialized @(35408,0)
GPGPU-Sim uArch: Shader 4 finished CTA #1 (35408,0), 2 CTAs running
GPGPU-Sim uArch: core:  4, cta: 1 initialized @(35409,0)
GPGPU-Sim uArch: Shader 0 finished CTA #1 (35434,0), 2 CTAs running
GPGPU-Sim uArch: core:  0, cta: 1 initialized @(35435,0)
GPGPU-Sim uArch: Shader 13 finished CTA #1 (35479,0), 2 CTAs running
GPGPU-Sim uArch: core: 13, cta: 1 initialized @(35480,0)
GPGPU-Sim uArch: Shader 6 finished CTA #1 (35487,0), 2 CTAs running
GPGPU-Sim uArch: core:  6, cta: 1 initialized @(35488,0)
GPGPU-Sim uArch: Shader 7 finished CTA #1 (35502,0), 2 CTAs running
GPGPU-Sim uArch: core:  7, cta: 1 initialized @(35503,0)
GPGPU-Sim PTX: 20600000 instructions simulated : ctaid=(258,0,0) tid=(76,0,0)
GPGPU-Sim uArch: Shader 9 finished CTA #1 (35633,0), 2 CTAs running
GPGPU-Sim uArch: core:  9, cta: 1 initialized @(35634,0)
GPGPU-Sim PTX: 20700000 instructions simulated : ctaid=(267,0,0) tid=(289,0,0)
GPGPU-Sim uArch: Shader 5 finished CTA #1 (35696,0), 2 CTAs running
GPGPU-Sim uArch: core:  5, cta: 1 initialized @(35697,0)
GPGPU-Sim PTX: 20800000 instructions simulated : ctaid=(279,0,0) tid=(435,0,0)
GPGPU-Sim PTX: 20900000 instructions simulated : ctaid=(258,0,0) tid=(323,0,0)
GPGPU-Sim uArch: cycles simulated: 36000  inst.: 20032314 (ipc=556.5) sim_rate=690769 (inst/sec) elapsed = 0:0:00:29 / Mon Jan 28 01:39:06 2019
GPGPU-Sim PTX: 21000000 instructions simulated : ctaid=(269,0,0) tid=(269,0,0)
GPGPU-Sim PTX: 21100000 instructions simulated : ctaid=(262,0,0) tid=(29,0,0)
GPGPU-Sim PTX: 21200000 instructions simulated : ctaid=(258,0,0) tid=(297,0,0)
GPGPU-Sim PTX: 21300000 instructions simulated : ctaid=(284,0,0) tid=(341,0,0)
GPGPU-Sim PTX: 21400000 instructions simulated : ctaid=(272,0,0) tid=(378,0,0)
GPGPU-Sim PTX: 21500000 instructions simulated : ctaid=(281,0,0) tid=(380,0,0)
GPGPU-Sim PTX: 21600000 instructions simulated : ctaid=(286,0,0) tid=(387,0,0)
GPGPU-Sim uArch: Shader 2 finished CTA #2 (37183,0), 2 CTAs running
GPGPU-Sim uArch: core:  2, cta: 2 initialized @(37184,0)
GPGPU-Sim uArch: Shader 3 finished CTA #2 (37224,0), 2 CTAs running
GPGPU-Sim uArch: core:  3, cta: 2 initialized @(37225,0)
GPGPU-Sim uArch: Shader 10 finished CTA #2 (37253,0), 2 CTAs running
GPGPU-Sim uArch: core: 10, cta: 2 initialized @(37254,0)
GPGPU-Sim uArch: Shader 14 finished CTA #2 (37259,0), 2 CTAs running
GPGPU-Sim uArch: core: 14, cta: 2 initialized @(37260,0)
GPGPU-Sim uArch: Shader 4 finished CTA #2 (37266,0), 2 CTAs running
GPGPU-Sim uArch: core:  4, cta: 2 initialized @(37267,0)
GPGPU-Sim uArch: Shader 7 finished CTA #2 (37292,0), 2 CTAs running
GPGPU-Sim uArch: core:  7, cta: 2 initialized @(37293,0)
GPGPU-Sim uArch: Shader 8 finished CTA #2 (37334,0), 2 CTAs running
GPGPU-Sim uArch: core:  8, cta: 2 initialized @(37335,0)
GPGPU-Sim uArch: Shader 1 finished CTA #2 (37338,0), 2 CTAs running
GPGPU-Sim uArch: core:  1, cta: 2 initialized @(37339,0)
GPGPU-Sim PTX: 21700000 instructions simulated : ctaid=(281,0,0) tid=(448,0,0)
GPGPU-Sim uArch: Shader 0 finished CTA #2 (37363,0), 2 CTAs running
GPGPU-Sim uArch: core:  0, cta: 2 initialized @(37364,0)
GPGPU-Sim uArch: Shader 9 finished CTA #2 (37369,0), 2 CTAs running
GPGPU-Sim uArch: core:  9, cta: 2 initialized @(37370,0)
GPGPU-Sim uArch: Shader 11 finished CTA #2 (37376,0), 2 CTAs running
GPGPU-Sim uArch: core: 11, cta: 2 initialized @(37377,0)
GPGPU-Sim uArch: Shader 5 finished CTA #2 (37424,0), 2 CTAs running
GPGPU-Sim uArch: core:  5, cta: 2 initialized @(37425,0)
GPGPU-Sim uArch: Shader 12 finished CTA #2 (37427,0), 2 CTAs running
GPGPU-Sim uArch: core: 12, cta: 2 initialized @(37428,0)
GPGPU-Sim uArch: cycles simulated: 37500  inst.: 20888949 (ipc=557.0) sim_rate=696298 (inst/sec) elapsed = 0:0:00:30 / Mon Jan 28 01:39:07 2019
GPGPU-Sim uArch: Shader 6 finished CTA #2 (37513,0), 2 CTAs running
GPGPU-Sim uArch: core:  6, cta: 2 initialized @(37514,0)
GPGPU-Sim PTX: 21800000 instructions simulated : ctaid=(309,0,0) tid=(470,0,0)
GPGPU-Sim uArch: Shader 13 finished CTA #2 (37538,0), 2 CTAs running
GPGPU-Sim uArch: core: 13, cta: 2 initialized @(37539,0)
GPGPU-Sim PTX: 21900000 instructions simulated : ctaid=(280,0,0) tid=(338,0,0)
GPGPU-Sim PTX: 22000000 instructions simulated : ctaid=(284,0,0) tid=(306,0,0)
GPGPU-Sim PTX: 22100000 instructions simulated : ctaid=(274,0,0) tid=(446,0,0)
GPGPU-Sim PTX: 22200000 instructions simulated : ctaid=(284,0,0) tid=(446,0,0)
GPGPU-Sim PTX: 22300000 instructions simulated : ctaid=(305,0,0) tid=(252,0,0)
GPGPU-Sim PTX: 22400000 instructions simulated : ctaid=(287,0,0) tid=(156,0,0)
GPGPU-Sim uArch: cycles simulated: 38500  inst.: 21507289 (ipc=558.6) sim_rate=693783 (inst/sec) elapsed = 0:0:00:31 / Mon Jan 28 01:39:08 2019
GPGPU-Sim PTX: 22500000 instructions simulated : ctaid=(270,0,0) tid=(136,0,0)
[...]
gpgpu_stall_shd_mem[g_mem_st][icnt_rc] = 0
gpgpu_stall_shd_mem[g_mem_st][wb_icnt_rc] = 0
gpgpu_stall_shd_mem[g_mem_st][wb_rsrv_fail] = 0
gpgpu_stall_shd_mem[l_mem_ld][mshr_rc] = 0
gpgpu_stall_shd_mem[l_mem_ld][icnt_rc] = 0
gpgpu_stall_shd_mem[l_mem_ld][wb_icnt_rc] = 0
gpgpu_stall_shd_mem[l_mem_ld][wb_rsrv_fail] = 0
gpgpu_stall_shd_mem[l_mem_st][mshr_rc] = 0
gpgpu_stall_shd_mem[l_mem_st][icnt_rc] = 0
gpgpu_stall_shd_mem[l_mem_ld][wb_icnt_rc] = 0
gpgpu_stall_shd_mem[l_mem_ld][wb_rsrv_fail] = 0
gpu_reg_bank_conflict_stalls = 0
Warp Occupancy Distribution:
Stall:143318	W0_Idle:51841	W0_Scoreboard:309589	W1:369306	W2:187584	W3:0	W4:187584	W5:0	W6:0	W7:0	W8:187584	W9:0	W10:0	W11:0	W12:0	W13:0	W14:0	W15:0	W16:187584	W17:0	W18:0	W19:0	W20:0	W21:0	W22:0	W23:0	W24:0	W25:0	W26:0	W27:0	W28:0	W29:0	W30:0	W31:0	W32:2141486
traffic_breakdown_coretomem[CONST_ACC_R] = 120 {8:15,}
traffic_breakdown_coretomem[GLOBAL_ACC_R] = 250000 {8:31250,}
traffic_breakdown_coretomem[GLOBAL_ACC_W] = 39080 {40:977,}
traffic_breakdown_coretomem[INST_ACC_R] = 600 {8:75,}
traffic_breakdown_memtocore[CONST_ACC_R] = 1080 {72:15,}
traffic_breakdown_memtocore[GLOBAL_ACC_R] = 4250000 {136:31250,}
traffic_breakdown_memtocore[GLOBAL_ACC_W] = 7816 {8:977,}
traffic_breakdown_memtocore[INST_ACC_R] = 10200 {136:75,}
maxmrqlatency = 197 
maxdqlatency = 0 
maxmflatency = 732 
averagemflatency = 266 
max_icnt2mem_latency = 221 
max_icnt2sh_latency = 126924 
mrq_lat_table:28478 	1177 	551 	413 	418 	172 	173 	24 	0 	0 	0 	0 	0 	0 	0 	0 	0 	0 	0 	0 	0 	0 	0 	0 	0 	0 	0 	0 	0 	0 	0 	0 	
dq_lat_table:0 	0 	0 	0 	0 	0 	0 	0 	0 	0 	0 	0 	0 	0 	0 	0 	0 	0 	0 	0 	0 	0 	0 	0 	0 	0 	0 	0 	0 	0 	0 	0 	
mf_lat_table:0 	0 	0 	0 	0 	0 	0 	945 	31008 	289 	0 	0 	0 	0 	0 	0 	0 	0 	0 	0 	0 	0 	0 	0 	0 	0 	0 	0 	0 	0 	0 	0 	
icnt2mem_lat_table:0 	0 	0 	31481 	306 	356 	159 	15 	0 	0 	0 	0 	0 	0 	0 	0 	0 	0 	0 	0 	0 	0 	0 	0 	
icnt2sh_lat_table:0 	0 	0 	22691 	7619 	892 	63 	0 	0 	0 	0 	0 	30 	60 	135 	255 	497 	0 	0 	0 	0 	0 	0 	0 	
mf_lat_pw_table:0 	0 	0 	0 	0 	0 	0 	76 	168 	0 	0 	0 	0 	0 	0 	0 	0 	0 	0 	0 	0 	0 	0 	0 	0 	0 	0 	0 	0 	0 	0 	0 	
maximum concurrent accesses to same row:
dram[0]:        32        32        32        32        32        32        32        32        32        32        32        32        32        32        32        32 
dram[1]:        32        32        32        32        32        32        32        32        32        32        32        32        32        32        32        32 
dram[2]:        32        32        32        32        32        32        32        32        32        32        32        32        32        32        32        32 
dram[3]:        32        32        32        32        32        32        32        32        32        32        32        32        32        32        32        32 
dram[4]:        32        32        32        32        32        32        32        32        32        32        32        32        32        32        32        32 
dram[5]:        32        32        32        32        32        32        32        32        32        32        32        32        32        32        32        32 
maximum service time to same row:
dram[0]:     13166     13151     13134     13050     13556     13633     13065     13059     13159     13173     13572     13687     15712     15862     12985     12944 
dram[1]:     13125     13229     13127     13073     13573     13672     13008     13098     13106     13043     13573     13708     15782     15929     12995     12861 
dram[2]:     13097     12928     13154     13087     13584     13621     13001     12870     13103     12964     13588     13632     15858     15848     13003     12807 
dram[3]:     13106     12975     13082     13050     13587     13713     12947     12777     13097     13015     13596     13624     15930     15935     12928     12859 
dram[4]:     13105     12871     13100     13069     13583     13755     13081     12804     13028     13010     13578     13712     15734     15928     12901     12867 
dram[5]:     13152     12966     13131     13069     13607     13517     13081     12888     13126     12983     13627     13707     15791     15925     12884     12898 
average row accesses per activate:
dram[0]: 24.846153 32.000000 32.000000 32.000000 30.000000 30.000000 32.000000 32.000000 25.615385 25.615385 32.000000 32.000000 32.000000 32.000000 32.000000 32.000000 
dram[1]: 29.272728 32.000000 32.000000 32.000000 30.000000 30.000000 32.000000 32.000000 20.687500 22.066668 32.000000 32.000000 32.000000 32.000000 32.000000 32.000000 
dram[2]: 29.181818 32.000000 32.000000 32.000000 30.000000 30.181818 32.000000 32.000000 22.266666 27.500000 32.000000 32.000000 32.000000 32.000000 32.000000 32.000000 
dram[3]: 32.000000 32.000000 32.000000 32.000000 30.000000 30.181818 32.000000 32.000000 25.461538 26.230770 32.000000 32.000000 32.000000 32.000000 32.000000 32.000000 
dram[4]: 32.000000 32.000000 32.000000 32.000000 30.000000 30.181818 32.000000 32.000000 20.750000 17.947369 32.000000 32.000000 32.000000 32.000000 32.000000 32.000000 
dram[5]: 32.000000 32.000000 32.000000 32.000000 30.000000 30.181818 32.000000 32.000000 22.200001 22.533333 32.000000 32.000000 32.000000 32.000000 32.000000 32.000000 
average row locality = 31406/1044 = 30.082375
number of total memory accesses made:
dram[0]:         0         0         0         0         0         0         0         0         0         0         0         0         0         0         0         0 
dram[1]:         0         0         0         0         0         0         0         0         0         0         0         0         0         0         0         0 
dram[2]:         0         0         0         0         0         0         0         0         0         0         0         0         0         0         0         0 
dram[3]:         0         0         0         0         0         0         0         0         0         0         0         0         0         0         0         0 
dram[4]:         0         0         0         0         0         0         0         0         0         0         0         0         0         0         0         0 
dram[5]:         0         0         0         0         0         0         0         0         0         0         0         0         0         0         0         0 
total accesses: 0
min_bank_accesses = 0!
min_chip_accesses = 0!
number of total read accesses:
dram[0]:       323       320       320       320       330       330       352       352       325       324       320       320       320       320       320       320 
dram[1]:       322       320       320       320       330       330       352       352       324       324       320       320       320       320       320       320 
dram[2]:       321       320       320       320       330       332       352       352       324       324       320       320       320       320       320       320 
dram[3]:       320       320       320       320       330       332       352       352       324       324       320       320       320       320       320       320 
dram[4]:       320       320       320       320       330       332       352       352       324       324       320       320       320       320       320       320 
dram[5]:       320       320       320       320       330       332       352       352       324       324       320       320       320       320       320       320 
total reads: 31287
bank skew: 352/320 = 1.10
chip skew: 5216/5214 = 1.00
number of total write accesses:
dram[0]:         0         0         0         0         0         0         0         0         8         9         0         0         0         0         0         0 
dram[1]:         0         0         0         0         0         0         0         0         7         7         0         0         0         0         0         0 
dram[2]:         0         0         0         0         0         0         0         0        10         6         0         0         0         0         0         0 
dram[3]:         0         0         0         0         0         0         0         0         7        17         0         0         0         0         0         0 
dram[4]:         0         0         0         0         0         0         0         0         8        17         0         0         0         0         0         0 
dram[5]:         0         0         0         0         0         0         0         0         9        14         0         0         0         0         0         0 
total reads: 119
min_bank_accesses = 0!
chip skew: 25/14 = 1.79
average mf latency per bank:
dram[0]:        272       264       262       263       265       264       278       280       301       290       275       274       271       268       264       264
dram[1]:        264       264       263       263       266       263       278       279       298       293       276       272       272       270       265       265
dram[2]:        261       264       263       262       267       266       281       282       296       296       278       279       274       270       263       263
dram[3]:        262       268       261       263       266       267       278       284       295       316       271       279       272       269       264       266
dram[4]:        262       265       262       263       265       265       284       283       307       313       280       278       274       269       263       265
dram[5]:        262       263       262       262       264       265       282       283       299       317       278       280       274       271       262       263
maximum mf latency per bank:
dram[0]:        318       319       294       304       471       383       594       561       588       442       581       565       682       548       333       324
dram[1]:        370       333       319       322       493       354       646       655       622       469       638       575       701       649       371       344
dram[2]:        323       302       299       286       491       425       645       575       639       517       598       631       705       600       308       297
dram[3]:        325       419       300       292       545       495       637       687       583       479       501       547       715       597       311       396
dram[4]:        304       384       290       309       432       439       679       625       691       436       611       557       732       602       303       377
dram[5]:        300       326       291       291       388       407       683       671       657       475       540       537       719       606       308       324
Memory Partition 0: 
Cache L2_bank_000:
MSHR contents

Cache L2_bank_001:
MSHR contents

In Dram Latency Queue (total = 0): 
DRAM[0]: 16 bks, busW=4 BL=8 CL=12, tRRD=2 tCCD=6, tRCD=12 tRAS=28 tRP=12 tRC=40
n_cmd=167540 n_nop=156757 n_act=173 n_pre=157 n_req=5233 n_rd=10432 n_write=21 bw_util=0.1248
n_activity=60652 dram_eff=0.3447
bk0: 646a 165771i bk1: 640a 165734i bk2: 640a 165735i bk3: 640a 165546i bk4: 660a 165601i bk5: 660a 165519i bk6: 704a 165411i bk7: 704a 165024i bk8: 650a 165510i bk9: 648a 165423i bk10: 640a 165485i bk11: 640a 165049i bk12: 640a 165413i bk13: 640a 165209i bk14: 640a 165664i bk15: 640a 165511i 
dram_util_bins: 0 0 0 0 0 0 0 0 0 0
dram_eff_bins: 0 0 0 0 0 0 0 0 0 0
mrqq: max=16 avg=0.0595082
Memory Partition 1: 
Cache L2_bank_002:
MSHR contents

Cache L2_bank_003:
MSHR contents

In Dram Latency Queue (total = 0): 
DRAM[1]: 16 bks, busW=4 BL=8 CL=12, tRRD=2 tCCD=6, tRCD=12 tRAS=28 tRP=12 tRC=40
n_cmd=167540 n_nop=156758 n_act=176 n_pre=160 n_req=5228 n_rd=10428 n_write=18 bw_util=0.1247
n_activity=61560 dram_eff=0.3394
bk0: 644a 165779i bk1: 640a 165751i bk2: 640a 165727i bk3: 640a 165606i bk4: 660a 165612i bk5: 660a 165501i bk6: 704a 165476i bk7: 704a 165063i bk8: 648a 165557i bk9: 648a 165232i bk10: 640a 165455i bk11: 640a 165161i bk12: 640a 165485i bk13: 640a 165267i bk14: 640a 165724i bk15: 640a 165578i 
dram_util_bins: 0 0 0 0 0 0 0 0 0 0
dram_eff_bins: 0 0 0 0 0 0 0 0 0 0
mrqq: max=16 avg=0.0499105
Memory Partition 2: 
Cache L2_bank_004:
MSHR contents

Cache L2_bank_005:
MSHR contents

In Dram Latency Queue (total = 0): 
DRAM[2]: 16 bks, busW=4 BL=8 CL=12, tRRD=2 tCCD=6, tRCD=12 tRAS=28 tRP=12 tRC=40
n_cmd=167540 n_nop=156763 n_act=172 n_pre=156 n_req=5231 n_rd=10430 n_write=19 bw_util=0.1247
n_activity=60961 dram_eff=0.3428
bk0: 642a 165809i bk1: 640a 165760i bk2: 640a 165775i bk3: 640a 165655i bk4: 660a 165671i bk5: 664a 165470i bk6: 704a 165479i bk7: 704a 165037i bk8: 648a 165495i bk9: 648a 165268i bk10: 640a 165435i bk11: 640a 165185i bk12: 640a 165251i bk13: 640a 165191i bk14: 640a 165787i bk15: 640a 165562i 
dram_util_bins: 0 0 0 0 0 0 0 0 0 0
dram_eff_bins: 0 0 0 0 0 0 0 0 0 0
mrqq: max=16 avg=0.0643309
Memory Partition 3: 
Cache L2_bank_006:
MSHR contents

Cache L2_bank_007:
MSHR contents

In Dram Latency Queue (total = 0): 
DRAM[3]: 16 bks, busW=4 BL=8 CL=12, tRRD=2 tCCD=6, tRCD=12 tRAS=28 tRP=12 tRC=40
n_cmd=167540 n_nop=156760 n_act=170 n_pre=154 n_req=5238 n_rd=10428 n_write=28 bw_util=0.1248
n_activity=61561 dram_eff=0.3397
bk0: 640a 165859i bk1: 640a 165669i bk2: 640a 165826i bk3: 640a 165569i bk4: 660a 165724i bk5: 664a 165461i bk6: 704a 165487i bk7: 704a 165087i bk8: 648a 165622i bk9: 648a 165358i bk10: 640a 165593i bk11: 640a 165260i bk12: 640a 165430i bk13: 640a 165303i bk14: 640a 165771i bk15: 640a 165492i 
dram_util_bins: 0 0 0 0 0 0 0 0 0 0
dram_eff_bins: 0 0 0 0 0 0 0 0 0 0
mrqq: max=16 avg=0.0541483
Memory Partition 4: 
Cache L2_bank_008:
MSHR contents

Cache L2_bank_009:
MSHR contents

In Dram Latency Queue (total = 0): 
DRAM[4]: 16 bks, busW=4 BL=8 CL=12, tRRD=2 tCCD=6, tRCD=12 tRAS=28 tRP=12 tRC=40
n_cmd=167540 n_nop=156741 n_act=179 n_pre=163 n_req=5239 n_rd=10428 n_write=29 bw_util=0.1248
n_activity=60897 dram_eff=0.3434
bk0: 640a 165838i bk1: 640a 165779i bk2: 640a 165740i bk3: 640a 165571i bk4: 660a 165642i bk5: 664a 165437i bk6: 704a 165316i bk7: 704a 164998i bk8: 648a 165437i bk9: 648a 165291i bk10: 640a 165349i bk11: 640a 165103i bk12: 640a 165339i bk13: 640a 165249i bk14: 640a 165720i bk15: 640a 165639i 
dram_util_bins: 0 0 0 0 0 0 0 0 0 0
dram_eff_bins: 0 0 0 0 0 0 0 0 0 0
mrqq: max=16 avg=0.0618718
Memory Partition 5: 
Cache L2_bank_010:
MSHR contents

Cache L2_bank_011:
MSHR contents

In Dram Latency Queue (total = 0): 
DRAM[5]: 16 bks, busW=4 BL=8 CL=12, tRRD=2 tCCD=6, tRCD=12 tRAS=28 tRP=12 tRC=40
n_cmd=167540 n_nop=156753 n_act=174 n_pre=158 n_req=5237 n_rd=10428 n_write=27 bw_util=0.1248
n_activity=62105 dram_eff=0.3367
bk0: 640a 165882i bk1: 640a 165738i bk2: 640a 165789i bk3: 640a 165656i bk4: 660a 165671i bk5: 664a 165488i bk6: 704a 165362i bk7: 704a 165087i bk8: 648a 165548i bk9: 648a 165340i bk10: 640a 165389i bk11: 640a 165309i bk12: 640a 165433i bk13: 640a 165217i bk14: 640a 165740i bk15: 640a 165676i 
dram_util_bins: 0 0 0 0 0 0 0 0 0 0
dram_eff_bins: 0 0 0 0 0 0 0 0 0 0
mrqq: max=16 avg=0.0566014

========= L2 cache stats =========
L2_cache_bank[0]: Access = 2730, Miss = 2610, Miss_rate = 0.956, Pending_hits = 12, Reservation_fails = 410
L2_cache_bank[1]: Access = 2668, Miss = 2606, Miss_rate = 0.977, Pending_hits = 5, Reservation_fails = 77
L2_cache_bank[2]: Access = 2698, Miss = 2608, Miss_rate = 0.967, Pending_hits = 9, Reservation_fails = 131
L2_cache_bank[3]: Access = 2668, Miss = 2606, Miss_rate = 0.977, Pending_hits = 3, Reservation_fails = 32
L2_cache_bank[4]: Access = 2683, Miss = 2607, Miss_rate = 0.972, Pending_hits = 8, Reservation_fails = 180
L2_cache_bank[5]: Access = 2670, Miss = 2608, Miss_rate = 0.977, Pending_hits = 3, Reservation_fails = 137
L2_cache_bank[6]: Access = 2668, Miss = 2606, Miss_rate = 0.977, Pending_hits = 3, Reservation_fails = 131
L2_cache_bank[7]: Access = 2732, Miss = 2608, Miss_rate = 0.955, Pending_hits = 11, Reservation_fails = 118
L2_cache_bank[8]: Access = 2668, Miss = 2606, Miss_rate = 0.977, Pending_hits = 4, Reservation_fails = 119
L2_cache_bank[9]: Access = 2732, Miss = 2608, Miss_rate = 0.955, Pending_hits = 11, Reservation_fails = 122
L2_cache_bank[10]: Access = 2668, Miss = 2606, Miss_rate = 0.977, Pending_hits = 5, Reservation_fails = 124
L2_cache_bank[11]: Access = 2732, Miss = 2608, Miss_rate = 0.955, Pending_hits = 8, Reservation_fails = 141
L2_total_cache_accesses = 32317
L2_total_cache_misses = 31287
L2_total_cache_miss_rate = 0.9681
L2_total_cache_pending_hits = 82
L2_total_cache_reservation_fails = 1722
L2_total_cache_breakdown:
	L2_cache_stats_breakdown[GLOBAL_ACC_R][MISS] = 31250
	L2_cache_stats_breakdown[GLOBAL_ACC_R][RESERVATION_FAIL] = 864
	L2_cache_stats_breakdown[CONST_ACC_R][HIT] = 11
	L2_cache_stats_breakdown[CONST_ACC_R][HIT_RESERVED] = 3
	L2_cache_stats_breakdown[CONST_ACC_R][MISS] = 1
	L2_cache_stats_breakdown[CONST_ACC_R][RESERVATION_FAIL] = 102
	L2_cache_stats_breakdown[GLOBAL_ACC_W][HIT] = 881
	L2_cache_stats_breakdown[GLOBAL_ACC_W][HIT_RESERVED] = 65
	L2_cache_stats_breakdown[GLOBAL_ACC_W][MISS] = 31
	L2_cache_stats_breakdown[GLOBAL_ACC_W][RESERVATION_FAIL] = 403
	L2_cache_stats_breakdown[INST_ACC_R][HIT] = 56
	L2_cache_stats_breakdown[INST_ACC_R][HIT_RESERVED] = 14
	L2_cache_stats_breakdown[INST_ACC_R][MISS] = 5
	L2_cache_stats_breakdown[INST_ACC_R][RESERVATION_FAIL] = 353
L2_cache_data_port_util = 0.001
L2_cache_fill_port_util = 0.082

icnt_total_pkts_mem_to_simt=157647
icnt_total_pkts_simt_to_mem=33294
LD_mem_lat_dist  0 0 0 0 0 0 0 0 0 0 0 0 0 0 0 0 0 0 0 0 0 0 0 0 0 0 0
ST_mem_lat_dist  0 0 0 0 0 0 0 0 0 0 0 0 0 0 0 0 0 0 0 0 0 0 0 0 0 0 0
----------------------------Interconnect-DETAILS--------------------------------
Class 0:
Packet latency average = 9.97357
	minimum = 6
	maximum = 96
Network latency average = 9.53822
	minimum = 6
	maximum = 75
Slowest packet = 14
Flit latency average = 8.06771
	minimum = 6
	maximum = 71
Slowest flit = 889
Fragmentation average = 0
	minimum = 0
	maximum = 0
Injected packet rate average = 0.0188604
	minimum = 0.016947 (at node 0)
	maximum = 0.0215245 (at node 22)
Accepted packet rate average = 0.0188604
	minimum = 0.016947 (at node 0)
	maximum = 0.0215245 (at node 22)
Injected flit rate average = 0.0557171
	minimum = 0.0174591 (at node 0)
	maximum = 0.104755 (at node 15)
Accepted flit rate average= 0.0557171
	minimum = 0.0215245 (at node 16)
	maximum = 0.0839393 (at node 2)
Injected packet length average = 2.95419
Accepted packet length average = 2.95419
Total in-flight flits = 0 (0 measured)
====== Overall Traffic Statistics ======
====== Traffic class 0 ======
Packet latency average = 9.97357 (1 samples)
	minimum = 6 (1 samples)
	maximum = 96 (1 samples)
Network latency average = 9.53822 (1 samples)
	minimum = 6 (1 samples)
	maximum = 75 (1 samples)
Flit latency average = 8.06771 (1 samples)
	minimum = 6 (1 samples)
	maximum = 71 (1 samples)
Fragmentation average = 0 (1 samples)
	minimum = 0 (1 samples)
	maximum = 0 (1 samples)
Injected packet rate average = 0.0188604 (1 samples)
	minimum = 0.016947 (1 samples)
	maximum = 0.0215245 (1 samples)
Accepted packet rate average = 0.0188604 (1 samples)
	minimum = 0.016947 (1 samples)
	maximum = 0.0215245 (1 samples)
Injected flit rate average = 0.0557171 (1 samples)
	minimum = 0.0174591 (1 samples)
	maximum = 0.104755 (1 samples)
Accepted flit rate average = 0.0557171 (1 samples)
	minimum = 0.0215245 (1 samples)
	maximum = 0.0839393 (1 samples)
Injected packet size average = 2.95419 (1 samples)
Accepted packet size average = 2.95419 (1 samples)
Hops average = 1 (1 samples)
----------------------------END-of-Interconnect-DETAILS-------------------------


gpgpu_simulation_time = 0 days, 0 hrs, 1 min, 48 sec (108 sec)
gpgpu_simulation_rate = 662254 (inst/sec)
gpgpu_simulation_rate = 1175 (cycle/sec)
107.828659 s
Copying data from device to host...0.000195 s
Verifying results...TEST PASSED

